<?xml version="1.0" encoding="UTF-8"?>

<!-- generated on 2023-05-01 00:49:28 by Eclipse SUMO polyconvert Version 1.17.0
<configuration xmlns:xsi="http://www.w3.org/2001/XMLSchema-instance" xsi:noNamespaceSchemaLocation="http://sumo.dlr.de/xsd/polyconvertConfiguration.xsd">

    <input>
        <net-file value="lethanhnghi.net.xml"/>
        <osm-files value="lethanhnghi.osm"/>
        <type-file value="osmPolyconvert.typ.xml"/>
    </input>

    <output>
        <output-file value="lethanhnghi.poly.xml"/>
    </output>

</configuration>
-->

<additional xmlns:xsi="http://www.w3.org/2001/XMLSchema-instance" xsi:noNamespaceSchemaLocation="http://sumo.dlr.de/xsd/additional_file.xsd">
    <location netOffset="-586891.88,-2321953.95" convBoundary="0.00,-0.00,2611.79,2498.72" origBoundary="105.836068,20.996128,105.861194,21.018749" projParameter="+proj=utm +zone=48 +ellps=WGS84 +datum=WGS84 +units=m +no_defs"/>

    <poly id="1023619578" type="commercial" color="209,209,204" fill="1" layer="-3.00" shape="386.318647,1099.971904 460.545306,1098.812510 510.377083,1099.849444 510.720334,1133.377678 510.931632,1154.453178 486.970390,1151.283275 487.002473,1145.184711 477.528180,1144.304736 477.571962,1135.981469 385.849827,1135.787033 386.318647,1099.971904"/>
    <poly id="1040765157" type="building" color="255,230,230" fill="1" layer="-1.00" shape="506.421227,1191.907321 523.359876,1192.439200 523.996241,1172.242570 507.057572,1171.710691 506.421227,1191.907321"/>
    <poly id="1040765168" type="building" color="255,230,230" fill="1" layer="-1.00" shape="518.970999,1214.696956 523.595983,1214.721297 523.651755,1206.099243 519.037161,1206.074957 518.970999,1214.696956"/>
    <poly id="1040770332" type="building" color="255,230,230" fill="1" layer="-1.00" shape="492.739110,1089.983175 509.190309,1090.335375 509.738711,1065.124263 493.287546,1064.760995 492.739110,1089.983175"/>
    <poly id="1041014695" type="building" color="255,230,230" fill="1" layer="-1.00" shape="1466.249682,1118.521024 1480.529761,1116.704279 1479.811122,1111.121928 1465.520587,1112.949686 1466.249682,1118.521024"/>
    <poly id="1041014706" type="building" color="255,230,230" fill="1" layer="-1.00" shape="1090.541931,1475.621963 1089.016540,1465.353381 1083.462120,1466.176231 1084.997966,1476.433798 1090.541931,1475.621963"/>
    <poly id="1041014707" type="building" color="255,230,230" fill="1" layer="-1.00" shape="1067.958335,1471.473399 1082.582359,1467.444448 1080.562698,1460.228155 1072.974884,1462.313115 1071.893619,1458.455549 1064.867853,1460.388530 1067.958335,1471.473399"/>
    <poly id="1041014708" type="building" color="255,230,230" fill="1" layer="-1.00" shape="1116.882902,1453.259271 1135.810887,1452.950054 1135.661702,1443.839887 1116.733648,1444.160172 1116.882902,1453.259271"/>
    <poly id="1041014711" type="building" color="255,230,230" fill="1" layer="-1.00" shape="909.429123,1257.034699 913.576013,1257.056622 913.663374,1240.531823 909.516480,1240.509900 909.429123,1257.034699"/>
    <poly id="1041014715" type="building" color="255,230,230" fill="1" layer="-1.00" shape="1477.560009,1264.641227 1482.223764,1267.145388 1487.083645,1258.183618 1482.419830,1255.690524 1477.560009,1264.641227"/>
    <poly id="1041014716" type="building" color="255,230,230" fill="1" layer="-1.00" shape="998.319069,1254.173229 1002.548578,1254.295228 1003.017765,1238.303735 998.788252,1238.181736 998.319069,1254.173229"/>
    <poly id="1041014717" type="building" color="255,230,230" fill="1" layer="-1.00" shape="1277.677194,1085.508859 1282.567826,1080.531857 1279.879368,1077.916488 1278.144617,1079.689308 1277.131241,1078.709901 1273.975302,1081.925151 1277.677194,1085.508859"/>
    <poly id="1041014718" type="building" color="255,230,230" fill="1" layer="-1.00" shape="1294.826924,1175.509345 1300.291355,1179.910418 1303.660025,1175.777616 1298.195594,1171.376543 1294.826924,1175.509345"/>
    <poly id="1041014719" type="building" color="255,230,230" fill="1" layer="-1.00" shape="1284.289642,1169.299315 1293.356185,1176.497702 1298.305051,1170.336685 1289.238507,1163.138295 1284.289642,1169.299315"/>
    <poly id="1041038352" type="building" color="255,230,230" fill="1" layer="-1.00" shape="500.870226,1385.642966 503.610430,1384.362373 498.039619,1372.500849 495.299471,1373.770375 500.870226,1385.642966"/>
    <poly id="1043708501" type="building" color="255,230,230" fill="1" layer="-1.00" shape="1243.078943,1402.415694 1249.142653,1403.554725 1249.997952,1399.065452 1243.944692,1397.915407 1243.078943,1402.415694"/>
    <poly id="1043708502" type="building" color="255,230,230" fill="1" layer="-1.00" shape="1246.138244,1389.979863 1251.496165,1390.938052 1253.701768,1378.774404 1248.343843,1377.816213 1246.138244,1389.979863"/>
    <poly id="1043708504" type="building" color="255,230,230" fill="1" layer="-1.00" shape="1150.150663,1394.717201 1156.690352,1396.257187 1160.251386,1381.311453 1153.711692,1379.771466 1150.150663,1394.717201"/>
    <poly id="1043708507" type="building" color="255,230,230" fill="1" layer="-1.00" shape="1503.184465,1322.389180 1509.406174,1325.089806 1513.856278,1315.007943 1507.624231,1312.296192 1503.184465,1322.389180"/>
    <poly id="1043708508" type="building" color="255,230,230" fill="1" layer="-1.00" shape="1006.974656,1280.119316 1011.212678,1280.595554 1012.684356,1267.642134 1008.446332,1267.165895 1006.974656,1280.119316"/>
    <poly id="1043708509" type="building" color="255,230,230" fill="1" layer="-1.00" shape="1065.156201,1184.175683 1073.423723,1185.259905 1075.436943,1170.151001 1067.169414,1169.066778 1065.156201,1184.175683"/>
    <poly id="1043708510" type="building" color="255,230,230" fill="1" layer="-1.00" shape="904.955644,1226.384531 908.052825,1226.400903 908.118765,1213.927060 905.021581,1213.910688 904.955644,1226.384531"/>
    <poly id="1043708511" type="building" color="255,230,230" fill="1" layer="-1.00" shape="917.517177,1248.809293 926.183184,1249.220372 926.569759,1240.976388 917.914141,1240.565364 917.517177,1248.809293"/>
    <poly id="1043708512" type="building" color="255,230,230" fill="1" layer="-1.00" shape="1075.480630,1256.098114 1079.800043,1256.906855 1081.371873,1248.602739 1077.052516,1247.782929 1075.480630,1256.098114"/>
    <poly id="1043708513" type="building" color="255,230,230" fill="1" layer="-1.00" shape="1075.403945,1209.742840 1076.431241,1204.169758 1073.077388,1203.554297 1072.050035,1209.138447 1075.403945,1209.742840"/>
    <poly id="1043708514" type="building" color="255,230,230" fill="1" layer="-1.00" shape="1287.453890,1154.727827 1291.497271,1158.590064 1296.346549,1153.568573 1292.303167,1149.706335 1287.453890,1154.727827"/>
    <poly id="1043708515" type="building" color="255,230,230" fill="1" layer="-1.00" shape="1363.735823,1124.727795 1367.283467,1124.082536 1366.273249,1118.598258 1362.715152,1119.254531 1363.735823,1124.727795"/>
    <poly id="1043708516" type="building" color="255,230,230" fill="1" layer="-1.00" shape="1352.231366,1087.321540 1355.817709,1087.218840 1355.626984,1080.078642 1352.040698,1080.170274 1352.231366,1087.321540"/>
    <poly id="1043708517" type="building" color="255,230,230" fill="1" layer="-1.00" shape="1517.912775,1107.461778 1524.279315,1106.399884 1522.989211,1098.833226 1516.633001,1099.906244 1517.912775,1107.461778"/>
    <poly id="1046062717" type="building" color="255,230,230" fill="1" layer="-1.00" shape="627.486276,700.462243 634.745157,697.733365 632.776885,692.542947 625.507550,695.282839 627.486276,700.462243"/>
    <poly id="1046062718" type="building" color="255,230,230" fill="1" layer="-1.00" shape="573.349204,683.828992 573.410384,688.002130 586.933856,687.796622 586.872679,683.623484 573.349204,683.828992"/>
    <poly id="1046062719" type="building" color="255,230,230" fill="1" layer="-1.00" shape="583.017502,748.586218 582.994365,752.980282 586.788056,752.989189 586.800742,748.606139 589.315973,748.619384 589.355373,741.137300 574.024928,741.056579 573.985535,748.538662 583.017502,748.586218"/>
    <poly id="1046062720" type="building" color="255,230,230" fill="1" layer="-1.00" shape="573.804596,662.480297 573.980630,666.554424 587.162997,665.992928 586.986908,661.929869 573.804596,662.480297"/>
    <poly id="1046063580" type="building" color="255,230,230" fill="1" layer="-1.00" shape="502.041457,896.366940 501.991205,905.918772 510.586560,905.963995 510.636818,896.412163 502.041457,896.366940"/>
    <poly id="1046065334" type="building" color="255,230,230" fill="1" layer="-1.00" shape="573.663960,780.004653 581.314973,779.779294 581.208667,776.281095 573.557653,776.506454 573.663960,780.004653"/>
    <poly id="1046065335" type="building" color="255,230,230" fill="1" layer="-1.00" shape="574.235219,787.976965 579.370595,787.815840 579.228659,783.188468 574.093340,783.338525 574.235219,787.976965"/>
    <poly id="1046065336" type="building" color="255,230,230" fill="1" layer="-1.00" shape="575.188783,798.353150 582.204853,798.301544 582.171224,792.844607 575.144700,792.907226 575.188783,798.353150"/>
    <poly id="1082236842" type="school" color="237,199,199" fill="1" layer="-2.00" shape="1083.990187,654.127773 1147.860724,712.940966 1082.813818,784.021361 1057.594631,761.186352 1035.756604,741.667689 1069.397296,703.183535 1052.267066,687.696574 1083.990187,654.127773"/>
    <poly id="1087252308" type="leisure" color="207,245,201" fill="1" layer="-2.00" shape="1233.580297,720.490357 1241.200120,724.194451 1251.810463,726.486579 1264.237036,725.368186 1274.457835,720.762588 1282.222946,714.716127 1285.859529,709.079426 1290.127199,698.122129 1290.919897,687.810498 1288.568041,676.596695 1282.188633,668.305738 1233.580297,720.490357"/>
    <poly id="1087252308#1" type="sport" color="79,230,125" fill="1" layer="-2.00" shape="1233.580297,720.490357 1241.200120,724.194451 1251.810463,726.486579 1264.237036,725.368186 1274.457835,720.762588 1282.222946,714.716127 1285.859529,709.079426 1290.127199,698.122129 1290.919897,687.810498 1288.568041,676.596695 1282.188633,668.305738 1233.580297,720.490357"/>
    <poly id="1087252309" type="leisure" color="207,245,201" fill="1" layer="-2.00" shape="1233.580297,720.490357 1161.683492,654.306936 1210.291836,602.111043 1282.188633,668.305738 1233.580297,720.490357"/>
    <poly id="1087252309#1" type="sport" color="79,230,125" fill="1" layer="-2.00" shape="1233.580297,720.490357 1161.683492,654.306936 1210.291836,602.111043 1282.188633,668.305738 1233.580297,720.490357"/>
    <poly id="1087252310" type="leisure" color="207,245,201" fill="1" layer="-2.00" shape="1150.978764,658.046696 1157.826644,664.248138 1236.897668,735.837821 1242.359386,740.781208 1248.434498,733.939903 1252.927679,733.366043 1260.958541,732.080435 1268.213706,730.071263 1275.704346,726.779398 1282.141543,722.220136 1286.624521,717.694777 1291.466645,710.127490 1295.019384,702.664044 1295.981414,699.614246 1296.839633,694.582635 1296.593730,688.039848 1295.358268,679.942219 1293.665894,673.723808 1291.789777,668.832643 1290.914548,667.278408 1214.443109,597.417879 1210.060456,594.782473 1201.587179,593.243296 1193.026761,592.456319 1185.894033,592.927654 1179.776595,594.024211 1173.435444,598.108077 1167.601952,604.463676 1159.174129,613.960049 1152.773410,621.441633 1148.296980,628.656705 1146.170634,637.633053 1146.603988,646.080609 1148.345455,652.852687 1150.978764,658.046696"/>
    <poly id="1087252310#1" type="sport" color="79,230,125" fill="1" layer="-2.00" shape="1150.978764,658.046696 1157.826644,664.248138 1236.897668,735.837821 1242.359386,740.781208 1248.434498,733.939903 1252.927679,733.366043 1260.958541,732.080435 1268.213706,730.071263 1275.704346,726.779398 1282.141543,722.220136 1286.624521,717.694777 1291.466645,710.127490 1295.019384,702.664044 1295.981414,699.614246 1296.839633,694.582635 1296.593730,688.039848 1295.358268,679.942219 1293.665894,673.723808 1291.789777,668.832643 1290.914548,667.278408 1214.443109,597.417879 1210.060456,594.782473 1201.587179,593.243296 1193.026761,592.456319 1185.894033,592.927654 1179.776595,594.024211 1173.435444,598.108077 1167.601952,604.463676 1159.174129,613.960049 1152.773410,621.441633 1148.296980,628.656705 1146.170634,637.633053 1146.603988,646.080609 1148.345455,652.852687 1150.978764,658.046696"/>
    <poly id="1087252311" type="leisure" color="207,245,201" fill="1" layer="-2.00" shape="1161.683492,654.306936 1233.580297,720.490357 1241.200120,724.194451 1251.810463,726.486579 1264.237036,725.368186 1274.457835,720.762588 1282.222946,714.716127 1285.859529,709.079426 1290.127199,698.122129 1290.919897,687.810498 1288.568041,676.596695 1282.188633,668.305738 1210.291836,602.111043 1206.562339,599.789019 1199.532780,598.445663 1191.187697,598.213253 1183.490019,599.378910 1178.971274,602.808325 1162.074411,623.693557 1157.912073,630.478619 1156.011602,636.058136 1157.001501,643.434998 1159.223358,649.777952 1161.683492,654.306936"/>
    <poly id="1087252311#1" type="sport" color="79,230,125" fill="1" layer="-2.00" shape="1161.683492,654.306936 1233.580297,720.490357 1241.200120,724.194451 1251.810463,726.486579 1264.237036,725.368186 1274.457835,720.762588 1282.222946,714.716127 1285.859529,709.079426 1290.127199,698.122129 1290.919897,687.810498 1288.568041,676.596695 1282.188633,668.305738 1210.291836,602.111043 1206.562339,599.789019 1199.532780,598.445663 1191.187697,598.213253 1183.490019,599.378910 1178.971274,602.808325 1162.074411,623.693557 1157.912073,630.478619 1156.011602,636.058136 1157.001501,643.434998 1159.223358,649.777952 1161.683492,654.306936"/>
    <poly id="1087252312" type="leisure" color="207,245,201" fill="1" layer="-2.00" shape="1248.434498,733.939903 1260.011250,744.106865 1242.936200,763.319727 1231.359393,753.163844 1242.359386,740.781208 1248.434498,733.939903"/>
    <poly id="1087252312#1" type="sport" color="79,230,125" fill="1" layer="-2.00" shape="1248.434498,733.939903 1260.011250,744.106865 1242.936200,763.319727 1231.359393,753.163844 1242.359386,740.781208 1248.434498,733.939903"/>
    <poly id="1087558700" type="building" color="255,230,230" fill="1" layer="-1.00" shape="1554.562238,1423.341898 1544.821825,1423.677424 1535.968269,1431.179006 1552.551896,1449.541431 1557.530313,1443.690564 1557.129330,1435.066057 1554.693278,1429.961567 1554.562238,1423.341898"/>
    <poly id="1087558701" type="building" color="255,230,230" fill="1" layer="-1.00" shape="1552.551896,1449.541431 1549.729903,1452.503832 1520.370306,1454.129535 1519.236747,1438.638652 1526.639585,1438.124638 1535.968269,1431.179006 1552.551896,1449.541431"/>
    <poly id="1087558701#1" type="shop" color="237,199,255" fill="1" layer="-1.00" shape="1552.551896,1449.541431 1549.729903,1452.503832 1520.370306,1454.129535 1519.236747,1438.638652 1526.639585,1438.124638 1535.968269,1431.179006 1552.551896,1449.541431"/>
    <poly id="1087558702" type="amenity" color="237,199,199" fill="1" layer="-1.00" shape="1554.559990,1472.552496 1553.681713,1459.874371 1579.331618,1458.107210 1580.209817,1470.796406 1554.559990,1472.552496"/>
    <poly id="1087558702#1" type="building" color="255,230,230" fill="1" layer="-1.00" shape="1554.559990,1472.552496 1553.681713,1459.874371 1579.331618,1458.107210 1580.209817,1470.796406 1554.559990,1472.552496"/>
    <poly id="1087647915" type="natural" color="140,196,107" fill="0" layer="-4.00" shape="785.866148,1279.658987 849.393053,1289.125975 887.710388,1295.670692 920.135255,1300.125603 966.415708,1306.336280"/>
    <poly id="1087647916" type="natural" color="140,196,107" fill="0" layer="-4.00" shape="976.685776,1308.050885 1021.611834,1312.904195"/>
    <poly id="1087647917" type="natural" color="140,196,107" fill="0" layer="-4.00" shape="1045.335193,1315.796912 1092.118076,1321.324355 1122.718127,1326.887918 1160.738768,1334.472139 1200.079309,1342.063450 1257.836304,1353.704049"/>
    <poly id="1158639496" type="amenity" color="237,199,199" fill="1" layer="-1.00" shape="392.415453,778.354050 393.253377,870.105033 513.862327,870.075088 514.083913,831.912144 463.088519,832.606864 462.329084,777.393314 392.415453,778.354050"/>
    <poly id="11706972" type="tourism" color="207,245,201" fill="1" layer="-2.00" shape="707.287263,1987.760672 689.400826,1995.646697 683.526594,1998.028643 677.867105,1997.135450 678.405491,2005.406456 677.709009,2013.316757 669.662415,2017.712785 657.179698,2015.875998 650.287269,2012.286668 644.730772,2009.600932 630.913278,2006.639210 620.007436,2003.371860 609.992030,1998.769923 599.719655,2003.486309 595.899771,2008.502344 593.845731,2015.674973 596.133883,2046.911251 598.118911,2050.862096 602.906458,2053.521627 672.975329,2045.766757 698.854575,2041.697240 704.177924,2037.353268 705.284523,2028.537515 700.947679,2005.458956 712.228827,1996.685816 723.689511,1995.252043 735.653430,1992.990798 744.930234,1993.781351 748.426330,1996.954327 751.854524,1999.208259 780.026657,2001.814204 795.347964,1989.631219 809.147656,1982.188595 825.460713,1975.080247 833.708834,1973.862016 846.170648,1977.691154 853.816069,1980.387998 869.973093,1983.140902 885.141653,1984.139773 898.632497,1984.011869 906.133129,1980.675638 915.228917,1974.425761 926.288644,1960.382983 934.458701,1948.383668 939.997493,1930.836186 940.891155,1919.075095 940.844050,1906.368206 940.119183,1874.431744 947.399754,1847.872650 968.056008,1821.373260 983.533615,1762.039448 979.272155,1724.771391 958.078587,1683.860762 910.396923,1618.525806 908.321278,1606.162389 907.832152,1592.523414 908.928497,1577.808109 914.150402,1563.203166 951.212825,1494.453502 954.044154,1487.738833 954.682139,1481.090041 950.062506,1458.452666 946.146386,1452.145046 945.070913,1445.221548 948.133679,1439.947006 956.125931,1426.242208 957.771050,1411.928275 954.290253,1394.056379 950.497837,1384.008262 945.446150,1374.274473 929.068299,1362.067858 917.897814,1353.740629 808.219579,1345.169652 737.476519,1338.299037 730.602616,1340.996687 726.229259,1346.474654 724.258296,1353.636637 726.041943,1364.249659 731.333560,1375.810943 734.252447,1382.035766 736.289143,1388.023497 735.480401,1393.564543 729.642151,1400.905354 725.165638,1404.268695 718.131137,1405.891858 710.658492,1405.852439 704.869061,1403.940259 699.976998,1401.357636 697.139557,1397.424426 695.414236,1393.486013 692.872346,1384.750638 689.516754,1376.586535 686.070434,1373.801239 634.138578,1369.089006 622.924671,1367.004378 613.034143,1366.243880 605.416471,1370.055579 601.086952,1375.113205 598.258549,1381.296657 586.063004,1435.346244 585.325585,1453.007665 586.911180,1499.260155 589.359977,1571.052198 597.218102,1582.737645 602.353705,1592.350014 602.240684,1603.938126 603.976640,1674.896290 598.470090,1704.132364 590.329959,1726.259662 592.988265,1898.322294 601.821182,1914.329602 620.144637,1922.129840 638.361729,1922.502578 648.559728,1920.077000 655.372115,1909.287932 656.285369,1897.715102 654.429346,1885.065096 669.744713,1877.951334 683.683343,1877.670654 689.857435,1881.499713 695.185736,1893.957739 703.352490,1904.228111 720.966968,1922.296285 729.066270,1925.648506 739.196871,1935.995672 739.961236,1946.736148 738.099040,1954.961281 735.528093,1963.570071 731.395840,1972.624430 727.201827,1977.627395 719.881995,1982.160057 715.263057,1984.969219 707.287263,1987.760672"/>
    <poly id="136161119" type="water" color="181,209,209" fill="1" layer="-4.00" shape="789.267494,905.052899 785.992265,911.189690 779.581853,914.653498 735.248440,917.430204 728.561496,908.296637 726.792268,896.908903 726.311565,861.929959 726.840626,850.299774 728.445126,845.626268 731.992212,841.151173 737.739562,839.255574 780.238735,837.454281 785.825561,842.342832 787.363545,848.305794 789.267494,905.052899"/>
    <poly id="136174986" type="building" color="255,230,230" fill="1" layer="-1.00" shape="893.633027,910.529579 906.304833,910.175946 906.251891,908.393640 949.107201,908.011434 949.025356,901.867989 949.184267,899.334145 938.781028,899.168452 893.326110,899.769386 893.633027,910.529579"/>
    <poly id="136174987" type="building" color="255,230,230" fill="1" layer="-1.00" shape="1116.958747,819.090109 1156.616839,776.808307 1124.739667,747.263604 1085.091986,789.545535 1116.958747,819.090109"/>
    <poly id="136174987#1" type="leisure" color="207,245,201" fill="1" layer="-2.00" shape="1116.958747,819.090109 1156.616839,776.808307 1124.739667,747.263604 1085.091986,789.545535 1116.958747,819.090109"/>
    <poly id="136174987#2" type="sport" color="79,230,125" fill="1" layer="-2.00" shape="1116.958747,819.090109 1156.616839,776.808307 1124.739667,747.263604 1085.091986,789.545535 1116.958747,819.090109"/>
    <poly id="136174988" type="building" color="255,230,230" fill="1" layer="-1.00" shape="892.951802,966.665355 892.727365,946.198532 904.389755,946.072004 904.410463,948.053373 949.615224,947.561837 949.567905,944.716984 963.984902,944.538653 964.583935,960.978531 961.091462,961.015402 961.133686,964.823186 948.379884,964.966040 948.347700,961.224720 903.880966,961.709090 903.938549,966.546324 892.951802,966.665355"/>
    <poly id="158465659" type="building" color="255,230,230" fill="1" layer="-1.00" shape="1346.597552,813.479017 1311.616226,826.398349 1346.531568,919.824821 1385.386794,905.476180 1380.160248,891.502094 1360.425388,898.790997 1355.209154,884.828042 1349.668844,886.868421 1334.932336,847.386286 1339.264604,845.793294 1333.484627,830.333107 1350.543076,824.037187 1346.597552,813.479017"/>
    <poly id="158465661" type="building" color="255,230,230" fill="1" layer="-1.00" shape="1159.149430,1020.616419 1215.870108,1020.142390 1215.738208,1003.859929 1203.254888,1003.959747 1159.007139,1004.322837 1159.149430,1020.616419"/>
    <poly id="158465662" type="building" color="255,230,230" fill="1" layer="-1.00" shape="1008.983886,1010.435009 1044.817251,1009.218972 1045.061309,1016.127004 1075.135573,1015.101915 1074.739751,1003.488968 1055.029822,1004.159396 1054.778246,996.708967 1008.559708,998.279559 1008.983886,1010.435009"/>
    <poly id="158465664" type="building" color="255,230,230" fill="1" layer="-1.00" shape="792.759002,859.911908 803.268243,859.690671 803.169113,854.842151 870.174514,853.458257 870.356742,862.247599 880.429342,862.046241 880.552670,868.212040 892.964203,867.945569 892.687897,855.326033 882.584111,855.527218 882.200752,837.594243 870.870352,837.822161 870.978218,842.980646 803.577648,844.395658 803.511503,841.174379 792.368132,841.414406 792.759002,859.911908"/>
    <poly id="158465666" type="building" color="255,230,230" fill="1" layer="-1.00" shape="671.513499,1169.942571 666.087811,1169.991447 637.036504,1170.247861 636.413284,1103.114220 639.583473,1103.086652 639.530831,1097.297557 664.072214,1096.895616 670.744830,1096.908653 671.513499,1169.942571"/>
    <poly id="158465668" type="building" color="255,230,230" fill="1" layer="-1.00" shape="652.351323,873.460782 720.146805,872.025107 719.687943,850.638378 651.892258,852.096193 652.351323,873.460782"/>
    <poly id="158465669" type="building" color="255,230,230" fill="1" layer="-1.00" shape="1166.291273,1055.641800 1228.781429,1054.954900 1228.633983,1041.605507 1166.143835,1042.281342 1166.291273,1055.641800"/>
    <poly id="158465670" type="building" color="255,230,230" fill="1" layer="-1.00" shape="1016.100092,1095.534042 1075.865907,1095.042457 1075.776732,1084.405160 1016.010938,1084.885679 1016.100092,1095.534042"/>
    <poly id="158465671" type="building" color="255,230,230" fill="1" layer="-1.00" shape="938.781028,899.168452 899.709494,867.992284 892.964203,867.945569 892.687897,855.326033 905.703314,854.863529 904.581854,856.628560 907.447036,859.255867 908.419594,858.132021 914.607326,863.377985 952.447503,895.477430 949.184267,899.334145 938.781028,899.168452"/>
    <poly id="158465672" type="building" color="255,230,230" fill="1" layer="-1.00" shape="657.923598,1206.485482 823.638115,1206.452199 823.633598,1189.594865 801.464161,1189.599554 801.577794,1187.762785 794.500284,1187.670077 793.108583,1187.474565 785.208663,1187.632094 785.200353,1193.144158 744.592959,1193.118014 744.600961,1189.631483 725.757542,1189.620617 725.757309,1193.605271 674.787685,1193.557844 674.789598,1189.252213 671.140869,1189.365799 665.716005,1189.259721 657.661183,1189.228330 657.657174,1193.932415 654.171005,1194.755244 654.174415,1200.023861 657.916097,1200.021447 657.923598,1206.485482"/>
    <poly id="158465674" type="building" color="255,230,230" fill="1" layer="-1.00" shape="1016.824363,1139.358045 1077.302057,1139.833198 1077.481117,1129.573650 1017.267753,1130.206747 1016.824363,1139.358045"/>
    <poly id="158465676" type="building" color="255,230,230" fill="1" layer="-1.00" shape="1092.785763,1140.346882 1153.975721,1139.785649 1153.874738,1129.424999 1092.684800,1129.975166 1092.785763,1140.346882"/>
    <poly id="158465677" type="building" color="255,230,230" fill="1" layer="-1.00" shape="794.231828,1041.642092 802.828113,1041.499310 802.701146,1034.049547 875.772497,1033.273292 875.830703,1020.290262 864.740702,1020.287010 864.652368,1011.431752 860.349167,1011.475429 860.438614,1020.120392 803.332858,1020.704286 803.304432,1018.213726 794.001621,1018.308506 794.231828,1041.642092"/>
    <poly id="158465678" type="building" color="255,230,230" fill="1" layer="-1.00" shape="652.630320,907.298601 656.767893,907.132243 698.023346,906.597067 719.715759,906.456887 719.626688,887.872433 702.997856,895.543746 652.524922,895.742550 652.630320,907.298601"/>
    <poly id="158465679" type="building" color="255,230,230" fill="1" layer="-1.00" shape="1169.010537,1162.234789 1212.681540,1162.754163 1212.793686,1153.368670 1234.691560,1153.628730 1234.805950,1143.822646 1203.471313,1143.446121 1203.343085,1153.905173 1169.108803,1153.502265 1169.010537,1162.234789"/>
    <poly id="158465680" type="amenity" color="237,199,199" fill="1" layer="-1.00" shape="795.545910,932.502680 808.830262,932.273961 809.005857,942.325074 864.076531,941.398382 863.855156,928.214644 877.981439,927.979359 877.328304,890.287706 794.825800,891.711508 795.545910,932.502680"/>
    <poly id="158465680#1" type="building" color="255,230,230" fill="1" layer="-1.00" shape="795.545910,932.502680 808.830262,932.273961 809.005857,942.325074 864.076531,941.398382 863.855156,928.214644 877.981439,927.979359 877.328304,890.287706 794.825800,891.711508 795.545910,932.502680"/>
    <poly id="158465681" type="building" color="255,230,230" fill="1" layer="-1.00" shape="1093.364289,1099.806044 1152.872792,1098.837427 1152.659524,1086.129661 1093.150917,1087.109348 1093.364289,1099.806044"/>
    <poly id="158465682" type="building" color="255,230,230" fill="1" layer="-1.00" shape="645.874005,846.231389 645.766968,874.433315 601.584107,874.266959 601.680617,846.076049 645.874005,846.231389"/>
    <poly id="158465683" type="building" color="255,230,230" fill="1" layer="-1.00" shape="598.065675,1078.539388 615.912099,1078.423098 615.889185,1074.881063 664.117897,1074.426833 670.790522,1074.439870 686.630285,1074.456968 686.552999,1061.517501 615.406445,1061.950531 615.372890,1056.482524 597.931841,1056.589883 598.065675,1078.539388"/>
    <poly id="158465684" type="building" color="255,230,230" fill="1" layer="-1.00" shape="1126.673910,729.420373 1087.165597,772.854162 1078.072718,764.681736 1075.741308,767.248349 1044.200522,738.923123 1051.100623,731.333458 1048.400682,728.906235 1071.693979,703.251037 1056.228678,689.366751 1064.529747,680.234919 1091.384494,704.351471 1084.264750,712.194532 1082.402702,710.524398 1062.246034,732.687475 1086.317851,754.332085 1116.939675,720.668967 1126.673910,729.420373"/>
    <poly id="183422691" type="building" color="255,230,230" fill="1" layer="-1.00" shape="777.563110,1159.289611 794.878231,1159.392082 801.956044,1159.429450 871.476482,1159.818780 871.552744,1145.385871 805.118697,1145.079249 794.809095,1144.925202 777.639173,1144.878841 777.563110,1159.289611"/>
    <poly id="183423456" type="building" color="255,230,230" fill="1" layer="-1.00" shape="885.652189,1116.759779 805.541388,1116.203793 795.231768,1116.049747 777.012327,1115.953573 777.115538,1102.306672 795.480733,1102.359341 805.374922,1102.455851 885.755547,1103.101807 885.652189,1116.759779"/>
    <poly id="183423457" type="building" color="255,230,230" fill="1" layer="-1.00" shape="775.895337,1071.585179 775.992299,1057.152384 794.367237,1057.337923 802.963513,1057.195140 885.682856,1057.853434 885.638714,1064.239720 882.832575,1064.213822 882.790112,1072.249322 805.651587,1071.709052 795.757321,1071.623610 775.895337,1071.585179"/>
    <poly id="183423460" type="building" color="255,230,230" fill="1" layer="-1.00" shape="930.256462,1117.703940 930.203676,1127.687440 938.019370,1127.739835 938.074326,1117.346811 954.952978,1117.447139 955.031568,1104.552761 904.665741,1104.264326 904.585085,1117.557158 930.256462,1117.703940"/>
    <poly id="183423627" type="building" color="255,230,230" fill="1" layer="-1.00" shape="832.483205,1200.510860 833.008858,1185.604380 854.252660,1185.716596 853.728275,1200.379576 832.483205,1200.510860"/>
    <poly id="184021007" type="building" color="255,230,230" fill="1" layer="-1.00" shape="1139.659606,940.532164 1133.049185,934.652968 1126.511161,928.840569 1106.183259,910.768704 1109.675303,906.891093 1096.588820,895.266263 1064.930132,930.484577 1058.604729,937.512785 1052.049211,944.816488 1061.349398,953.078550 1067.936215,945.752879 1074.157099,938.834807 1085.940170,925.736769 1089.426455,928.832275 1095.486595,930.679606 1102.549177,929.687647 1106.467831,927.682871 1118.281815,938.183050 1124.819837,943.995446 1131.337185,949.785598 1139.659606,940.532164"/>