<?xml version='1.0' encoding='utf-8'?>
<routes xmlns:xsi="http://www.w3.org/2001/XMLSchema-instance" xsi:noNamespaceSchemaLocation="http://sumo.dlr.de/xsd/routes_file.xsd">
    <vehicle id="0" depart="00.00"><route edges="-601529284#1 -601529284#0 601529284#0 601529284#1 601529284#2 163843396#0 163843396#1 163843396#2 601455489 947077276#3 704626470#0 704626470#1 704626470#2 704626470#3 704626470#4 947077277#0 947077277#1 704626468#0 704626468#1 838419181#0 838419181#1 838419182 704626467#0 704626467#1 709685353#0 709685353#1 25211482 875229044#0 875229044#1 709685350#0 709685350#1 709685351#0 709685351#1 708596420#0 708596420#1 708596420#2 708596420#3 601468005#0 601468005#1 601468005#2 601468005#3 -601468005#3 -601468005#2 -601468005#1 -601468005#0 -708596420#3 -708596420#2 -708596420#1 -708596420#0 -953227389 236354440#0 236354440#1 709685349 397989527#0 397989527#1 397989527#2 875229043 875229042#0 875229042#1 875229042#2 838419179#0 838419179#1 838419179#2 838419179#3 838419179#4 838419180#0 838419180#1 813363002#0 813363002#1 813363002#2 163843397#0 163843397#1 -601529284#2 -601529284#1 -601529284#0 601529284#0 601529284#1 601529284#2 163843396#0 163843396#1 163843396#2 601455489 962177672 711379743#0 711379743#1 711379743#2 711379743#3 711379742#0 711379742#1 37370971#0 223812344 480685836#0 480685836#1 480685836#2 480685836#3 480685836#4 480685836#5 -708533143#4 -708533143#3 -708533143#2 -708533143#1 -708533143#0 -946030639#3 -946030639#2 -946030639#1 -946030639#0 953227387#0 953227387#1 953227387#2 953227387#3 953227387#4 953227387#5 -953227388 -472431976#14 -472431976#13 -472431976#12 -472431976#11 -472431976#10 -472431976#9 -472431976#8 -472431976#7 -472431976#6 -472431976#5 -472431976#4 -472431976#3 -472431976#2 -472431976#1 -472431976#0 838419182 704626467#0 704626467#1 709685353#0 709685353#1 25211482 875229044#0 -601468009#5 -601468009#4 496615728 -496615727#1 889984920 37771321#0 37771321#1 37771321#2 37771321#3 37771321#4 37771321#5 -37771321#5 -37771321#4 -791197835 -708642543#4 -708642543#3 -708642543#2 -708642543#1 -708642543#0 708596420#8 708596420#9 708596420#10 708596420#11 708596420#12 708596420#13 708596420#14 708596420#15 708596420#16 708596420#17 -708596417 965302189 708596418#0 708596418#1 702914101#0 702914101#1 28924692#0 28924692#1 28924692#2 28924692#3 28924692#4 28924692#5 28924692#6 -472431976#14 -472431976#13 -472431976#12 -472431976#11 38107860#0 38107860#1 472432750#0 472432750#1 472432750#2 -472432750#2 -472432750#1 -472432750#0 -38107860#1 -38107860#0 472431976#11 472431976#12 472431976#13 472431976#14 953227388 702906185#0 702906185#1 702906185#2 702906185#3" /></vehicle>
<vehicle id="1" depart="00.00"><route edges="702906185#4 702914102#0 702914102#1 708596413 708596411 708596419#0 708596419#1 708596417 -708596420#17 -708596420#16 -708596420#15 -708596420#14 -708596420#13 -708596420#12 -708596420#11 -708596420#10 -708596420#9 -708596420#8 -708596420#7 -708596420#6 -708596420#5 -708596420#4 -708596420#3 -708596420#2 -708596420#1 -708596420#0 -953227389 236354440#0 236354440#1 709685349 397989527#0 397989527#1 397989527#2 875229043 875229042#0 875229042#1 875229042#2 838419179#0 838419179#1 838419179#2 838419179#3 838419179#4 838419180#0 838419180#1 813363002#0 813363002#1 813363002#2 163843397#0 163843397#1 -601529284#2 -601529284#1 -601529284#0 601529284#0 601529284#1 601529284#2 163843396#0 163843396#1 163843396#2 601455489 947077276#3 704626470#0 704626470#1 704626470#2 704626470#3 704626470#4 947077277#0 947077277#1 704626468#0 704626468#1 838419181#0 838419181#1 838419182 704626467#0 704626467#1 709685353#0 709685353#1 25211482 875229044#0 -601468009#5 -601468009#4 496615728 -496615727#1 889984920 37771321#0 37771321#1 37771321#2 37771321#3 -791197835 -708642543#4 889984885#0 889984885#1 -889984885#1 -889984885#0 -708642543#3 -708642543#2 -708642543#1 -708642543#0 -708596420#7 -708596420#6 -708596420#5 -708596420#4 -708596420#3 -708596420#2 -708596420#1 -708596420#0 -953227389 236354440#0 236354440#1 709685349 397989527#0 397989527#1 397989527#2 875229043 875229042#0 875229042#1 875229042#2 838419179#0 838419179#1 838419179#2 838419179#3 838419179#4 838419180#0 838419180#1 813363002#0 813363002#1 813363002#2 399835468#0 601455489 962177672 711379743#0 -593642478#3 -593642478#2 -593642478#1 -601861003#1 -601861003#0 136258914#3 136258914#4 711379743#0 711379743#1 711379743#2 711379743#3 711379742#0 711379742#1 37370971#0 223812344 838425490#1 838425490#2 838425491#0 838425491#1 838425491#2 838425491#3 838425491#4 156006453#0 156006453#1 704626470#2 704626470#3 704626470#4 947077277#0 947077277#1 704626468#0 704626468#1 838419181#0 838419181#1 838419182 704626467#0 704626467#1 709685353#0 709685353#1 25211482 875229044#0 -601468009#5 -601468009#4 -601468009#3 -601468009#2 -601468009#1 -601468009#0 601468009#0 601468009#1 601468009#2 601468009#3 496615728 -496615727#1 889984920 -949252004#1 -949252004#0 708596420#2 708596420#3 708596420#4 708596420#5 708596420#6 708596420#7 708596420#8 708596420#9 708596420#10 708596420#11 708596420#12 708596420#13 708596420#14 708596420#15 708596420#16" /></vehicle>
<vehicle id="2" depart="00.00"><route edges="708596420#17 -708596417 965302189 708596418#0 708596418#1 708596409 708596410#0 708596410#1 708596410#2 -38136736#8 -38136736#7 -38136736#6 -38136736#5 -38136736#4 -838419184#5 -838419184#4 -28924715#5 -28924715#4 -28924715#3 -28924727#4 -889984937 200605636#1 200605636#2 200605636#3 200605636#4 953227387#2 953227387#3 953227387#4 953227387#5 -953227388 -472431976#14 -472431976#13 -472431976#12 -472431976#11 -472431976#10 36730573#0 36730573#1 -36730573#1 -36730573#0 472431976#10 472431976#11 472431976#12 472431976#13 472431976#14 838419183#0 838419183#1 838419183#2 838419183#3 838419183#4 838419183#5 946030639#0 946030639#1 946030639#2 946030639#3 708533143#0 708533143#1 708533143#2 708533143#3 708533143#4 708533143#5 708533143#6 708533143#7 -597136845#2 -597136845#1 -597136845#0 -709289364#1 -709289364#0 -708533143#2 -708533143#1 -708533143#0 -946030639#3 -946030639#2 -946030639#1 -946030639#0 953227387#0 953227387#1 953227387#2 953227387#3 953227387#4 953227387#5 702906185#0 702906185#1 702906185#2 702906185#3 702906185#4 702914102#0 702914102#1 708596413 708596411 708596419#0 708596419#1 708596417 -708596420#17 -708596420#16 -708596420#15 -708596420#14 -708596420#13 -708596420#12 -708596420#11 -708596420#10 -708596420#9 -708596420#8 -708596420#7 -708596420#6 -708596420#5 -708596420#4 -708596420#3 -708596420#2 -708596420#1 -708596420#0 -953227389 236354440#0 236354440#1 709685349 397989527#0 397989527#1 397989527#2 875229043 875229042#0 875229042#1 875229042#2 838419179#0 838419179#1 838419179#2 838419179#3 838419179#4 838419180#0 838419180#1 813363002#0 813363002#1 813363002#2 163843397#0 163843397#1 -601529284#2 -601529284#1 -601529284#0 601529284#0 601529284#1 601529284#2 163843396#0 163843396#1 163843396#2 601455489 947077276#3 704626470#0 704626470#1 704626470#2 704626470#3 704626470#4 947077277#0 947077277#1 704626468#0 704626468#1 838419181#0 838419181#1 838419182 704626467#0 704626467#1 709685353#0 709685353#1 25211482 875229044#0 875229044#1 709685350#0 709685350#1 709685351#0 709685351#1 -953227389 236354440#0 236354440#1 709685349 397989527#0 397989527#1 397989527#2 875229043 875229042#0 875229042#1 875229042#2 838419179#0 838419179#1 838419179#2 838419179#3 838419179#4 -36084921#2 -36084921#1 -36084921#0 36084921#0 36084921#1 36084921#2 764859227 838419181#0 838419181#1 472431976#0 472431976#1 472431976#2 472431976#3 472431976#4 472431976#5 472431976#6 472431976#7" /></vehicle>
<vehicle id="3" depart="00.00"><route edges="472431976#8 472431976#9 472431976#10 472431976#11 472431976#12 472431976#13 472431976#14 953227388 838419184#0 838419184#1 838419184#2 838419184#3 28924719#0 28924719#1 28924719#2 702906185#3 702906185#4 702914102#0 702914102#1 708596413 708596411 708596419#0 708596419#1 708596417 -708596420#17 -708596420#16 -708596420#15 -708596420#14 -708596420#13 -708596420#12 -708596420#11 -708596420#10 -708596420#9 -708596420#8 -708596420#7 -708596420#6 -708596420#5 -708596420#4 601468005#0 601468005#1 -889984918#1 -889984918#0 889984918#0 889984918#1 -601468005#1 -601468005#0 -708596420#3 -708596420#2 -708596420#1 -708596420#0 -953227389 236354440#0 236354440#1 709685349 397989527#0 397989527#1 397989527#2 875229043 875229042#0 875229042#1 875229042#2 838419179#0 838419179#1 838419179#2 838419179#3 838419179#4 838419180#0 838419180#1 813363002#0 813363002#1 813363002#2 163843397#0 163843397#1 -601529284#2 -601529284#1 -601529284#0 601529284#0 601529284#1 601529284#2 163843396#0 163843396#1 163843396#2 601455489 947077276#3 704626470#0 704626470#1 704626470#2 704626470#3 704626470#4 163843398#0 163843398#1 953227384#0 953227384#1 37731777#0 37731777#1 37731777#2 37731777#3 37731777#4 37731777#5 37731777#6 37731777#7 37731777#8 37731777#9 37731777#10 37731777#11 37731777#12 37731777#13 708533143#0 708533143#1 708533143#2 708533143#3 708533143#4 708533143#5 708533143#6 708533143#7 708533143#8 708533143#9 708533143#10 708533143#11 704606544#0 704606544#1 704606544#2 709289370 838425490#0 838425490#1 838425490#2 838425491#0 838425491#1 838425491#2 838425491#3 838425491#4 156006453#0 156006453#1 704626470#2 704626470#3 704626470#4 163843398#0 163843398#1 953227384#0 953227384#1 37731777#0 37731777#1 37731777#2 37731777#3 37731777#4 37731777#5 37731777#6 37731777#7 37731777#8 37731777#9 37731777#10 37731777#11 37731777#12 37731777#13 -946030639#3 -946030639#2 -946030639#1 -946030639#0 953227387#0 953227387#1 953227387#2 953227387#3 953227387#4 953227387#5 702906185#0 702906185#1 702906185#2 702906185#3 702906185#4 702914102#0 702914102#1 708596413 708596414 -946030638#5 -946030638#4 -946030638#3 946030638#3 946030638#4 946030638#5 708596415 708596412 702914101#0 702914101#1 28924692#0 28924692#1 28924692#2 28924692#3 28924692#4 28924692#5 28924692#6 838419183#0 838419183#1 838419183#2 838419183#3 838419183#4 838419183#5 946030639#0 946030639#1 946030639#2 946030639#3" /></vehicle>
<vehicle id="4" depart="00.00"><route edges="708533143#0 708533143#1 708533143#2 708533143#3 708533143#4 708533143#5 708533143#6 708533143#7 708533143#8 708533143#9 708533143#10 708533143#11 704606544#0 704606544#1 704606544#2 709289370 838425490#0 838425490#1 838425490#2 838425491#0 838425491#1 838425491#2 838425491#3 838425491#4 702919609#0 702919609#1 601455488 163843397#0 163843397#1 -601529284#2 -601529284#1 -601529284#0 601529284#0 601529284#1 601529284#2 163843396#0 163843396#1 163843396#2 601455489 947077276#3 704626470#0 704626470#1 704626470#2 704626470#3 704626470#4 947077277#0 947077277#1 704626468#0 704626468#1 838419181#0 838419181#1 838419182 704626467#0 704626467#1 709685353#0 709685353#1 25211482 875229044#0 875229044#1 709685350#0 709685350#1 709685351#0 709685351#1 708596420#0 708596420#1 708596420#2 708596420#3 708596420#4 708596420#5 708596420#6 708596420#7 708596420#8 708596420#9 708596420#10 708596420#11 708596420#12 708596420#13 708596420#14 708596420#15 708596420#16 708596420#17 -708596417 965302189 708596418#0 708596418#1 702914101#0 702914101#1 28924692#0 28924692#1 28924692#2 28924692#3 28924692#4 28924692#5 28924692#6 838419183#0 838419183#1 838419183#2 838419183#3 838419183#4 838419183#5 946030639#0 946030639#1 946030639#2 946030639#3 708533143#0 708533143#1 708533143#2 708533143#3 708533143#4 708533143#5 708533143#6 708533143#7 708533143#8 708533143#9 708533143#10 708533143#11 704606544#0 704606544#1 704606544#2 709289370 838425490#0 480685836#0 480685836#1 480685836#2 480685836#3 480685836#4 480685836#5 -708533143#4 -708533143#3 -708533143#2 -708533143#1 -708533143#0 -946030639#3 -946030639#2 -946030639#1 -946030639#0 953227387#0 953227387#1 953227387#2 953227387#3 953227387#4 953227387#5 702906185#0 702906185#1 702906185#2 702906185#3 702906185#4 702914102#0 702914102#1 708596410#0 708596410#1 708596410#2 -38136736#8 -38136736#7 37771359#0 37771359#1 37771359#2 37771359#3 -889984916#1 -889984916#0 946030638#3 946030638#4 946030638#5 708596415 708596412 708596409 708596410#0 708596410#1 708596410#2 -38136736#8 -38136736#7 -38136736#6 -38136736#5 -38136736#4 -38136736#3 -38136736#2 -38136736#1 -38136736#0 38136736#0 38136736#1 38136736#2 38136736#3 38136736#4 38136736#5 38136736#6 38136736#7 38136736#8 708596416#0 708596416#1 708596411 708596419#0 708596419#1 708596417 -708596420#17 -708596420#16 -708596420#15 -708596420#14 -708596420#13 -708596420#12 -708596420#11" /></vehicle>
<vehicle id="5" depart="00.00"><route edges="-708596420#10 -708596420#9 -708596420#8 -708596420#7 -708596420#6 -708596420#5 -708596420#4 -708596420#3 -708596420#2 -708596420#1 -708596420#0 -953227389 236354440#0 236354440#1 -397989528#3 -397989528#2 -397989528#1 -397989528#0 36085035#0 36085035#1 36085035#2 -36085035#2 -36085035#1 -36085035#0 397989528#0 397989528#1 397989528#2 397989528#3 918225680 709685351#0 709685351#1 708596420#0 708596420#1 708596420#2 708596420#3 708596420#4 708596420#5 708596420#6 708596420#7 708596420#8 708596420#9 708596420#10 708596420#11 708596420#12 708596420#13 708596420#14 708596420#15 708596420#16 708596420#17 -708596417 965302189 708596418#0 708596418#1 702914101#0 702914101#1 28924692#0 28924692#1 28924692#2 28924692#3 28924692#4 28924692#5 28924692#6 953227388 838419184#0 838419184#1 838419184#2 838419184#3 -28924715#5 -28924715#4 28924715#4 28924715#5 838419184#4 838419184#5 -838419184#5 -838419184#4 -838419184#3 -838419184#2 -838419184#1 -838419184#0 -953227388 838419183#0 838419183#1 838419183#2 838419183#3 838419183#4 838419183#5 946030639#0 946030639#1 946030639#2 946030639#3 708533143#0 708533143#1 708533143#2 708533143#3 708533143#4 708533143#5 708533143#6 708533143#7 708533143#8 708533143#9 708533143#10 708533143#11 704606544#0 704606544#1 704606544#2 709289370 838425490#0 838425490#1 838425490#2 242518345#0 242518345#1 37370971#0 223812344 480685836#0 480685836#1 480685836#2 480685836#3 480685836#4 480685836#5 -708533143#4 -708533143#3 -708533143#2 -708533143#1 -708533143#0 -946030639#3 -946030639#2 -946030639#1 -946030639#0 953227387#0 953227387#1 953227387#2 953227387#3 953227387#4 953227387#5 702906185#0 702906185#1 702906185#2 702906185#3 702906185#4 702914102#0 702914102#1 708596413 708596414 -946030638#5 -946030638#4 -946030638#3 -946030638#2 -946030638#1 946030638#1 -399816039#3 -399816039#2 399816039#2 399816039#3 946030638#2 946030638#3 946030638#4 946030638#5 708596415 708596419#0 708596419#1 708596417 -708596420#17 -708596420#16 -708596420#15 -708596420#14 -708596420#13 -708596420#12 -708596420#11 -708596420#10 -708596420#9 -708596420#8 -708596420#7 -708596420#6 -708596420#5 -708596420#4 -708596420#3 -708596420#2 -708596420#1 -708596420#0 -953227389 236354440#0 236354440#1 709685349 397989527#0 397989527#1 397989527#2 875229043 875229042#0 875229042#1 875229042#2 838419179#0 838419179#1 838419179#2 838419179#3 838419179#4 838419180#0 838419180#1 813363002#0 813363002#1 813363002#2" /></vehicle>
<vehicle id="6" depart="00.00"><route edges="163843397#0 163843397#1 -601529284#2 -601529284#1 -601529284#0 601529284#0 601529284#1 601529284#2 163843396#0 163843396#1 163843396#2 601455489 947077276#3 704626470#0 704626470#1 704626470#2 704626470#3 704626470#4 163843398#0 163843398#1 953227384#0 953227384#1 37731777#0 37731777#1 37731777#2 37731777#3 37731777#4 37731777#5 37731777#6 -37731777#6 -37731777#5 -37731777#4 -37731777#3 -37731777#2 -37731777#1 -37731777#0 -953227384#1 -953227384#0 163843399#0 163843399#1 947077277#1 704626468#0 704626468#1 838419181#0 838419181#1 472431976#0 472431976#1 472431976#2 472431976#3 472431976#4 472431976#5 472431976#6 472431976#7 472431976#8 472431976#9 472431976#10 472431976#11 472431976#12 472431976#13 472431976#14 838419183#0 838419183#1 838419183#2 838419183#3 838419183#4 838419183#5 946030639#0 946030639#1 946030639#2 946030639#3 708533143#0 708533143#1 708533143#2 708533143#3 708533143#4 708533143#5 708533143#6 708533143#7 708533143#8 708533143#9 -136161120#2 -136161120#1 -136161120#0 136161120#0 136161120#1 136161120#2 -708533143#9 -708533143#8 -708533143#7 -708533143#6 -708533143#5 -708533143#4 -708533143#3 -708533143#2 -708533143#1 -708533143#0 -946030639#3 -946030639#2 -946030639#1 -946030639#0 953227387#0 953227387#1 953227387#2 953227387#3 953227387#4 953227387#5 702906185#0 702906185#1 702906185#2 702906185#3 702906185#4 702914102#0 702914102#1 708596410#0 708596410#1 708596410#2 -38136736#8 -38136736#7 -38136736#6 -38136736#5 -38136736#4 -38136736#3 -38136736#2 -38136736#1 -38136736#0 38136736#0 38136736#1 38136736#2 38136736#3 38136736#4 38136736#5 38136736#6 38136736#7 38136736#8 708596416#0 708596416#1 708596411 708596412 702914101#0 702914101#1 28924692#0 28924692#1 28924692#2 28924692#3 28924692#4 28924692#5 28924692#6 838419183#0 838419183#1 838419183#2 838419183#3 838419183#4 838419183#5 946030639#0 946030639#1 946030639#2 946030639#3 708533143#0 708533143#1 708533143#2 708533143#3 708533143#4 708533143#5 708533143#6 708533143#7 708533143#8 708533143#9 708533143#10 708533143#11 704606544#0 704606544#1 704606544#2 709289370 838425490#0 838425490#1 838425490#2 838425491#0 838425491#1 838425491#2 838425491#3 838425491#4 702919609#0 702919609#1 601455488 163843397#0 163843397#1 -601529284#2 -601529284#1 -601529284#0 601529284#0 601529284#1 601529284#2 163843396#0 163843396#1 163843396#2 601455489 962177672 711379743#0 711379743#1 711379743#2" /></vehicle>
<vehicle id="7" depart="00.00"><route edges="711379743#3 711379742#0 711379742#1 37370971#0 223812344 480685836#0 480685836#1 480685836#2 480685836#3 480685836#4 480685836#5 -708533143#4 -708533143#3 -708533143#2 -708533143#1 -708533143#0 -946030639#3 -946030639#2 -946030639#1 -946030639#0 953227387#0 953227387#1 953227387#2 953227387#3 953227387#4 953227387#5 702906185#0 702906185#1 702906185#2 702906185#3 702906185#4 702914102#0 702914102#1 708596413 708596414 -946030638#5 -946030638#4 -946030638#3 -946030638#2 -946030638#1 946030638#1 946030638#2 946030638#3 946030638#4 946030638#5 708596415 708596412 702914101#0 702914101#1 28924692#0 28924692#1 28924692#2 28924692#3 28924692#4 28924692#5 28924692#6 -472431976#14 -472431976#13 -472431976#12 -472431976#11 -472431976#10 -472431976#9 -472431976#8 -472431976#7 -472431976#6 -472431976#5 -472431976#4 -472431976#3 -472431976#2 -472431976#1 -472431976#0 838419182 704626467#0 704626467#1 178100060 875229042#2 838419179#0 838419179#1 838419179#2 838419179#3 838419179#4 -36084921#2 -36084921#1 -36084921#0 36084921#0 36084921#1 36084921#2 764859227 838419181#0 838419181#1 472431976#0 472431976#1 472431976#2 472431976#3 472431976#4 472431976#5 472431976#6 472431976#7 472431976#8 472431976#9 472431976#10 472431976#11 472431976#12 472431976#13 472431976#14 953227388 838419184#0 838419184#1 838419184#2 838419184#3 28924719#0 28924719#1 28924719#2 702906185#3 702906185#4 702914102#0 702914102#1 708596413 708596411 708596419#0 708596419#1 708596417 -708596420#17 -708596420#16 -708596420#15 -708596420#14 -708596420#13 -708596420#12 -708596420#11 -708596420#10 -708596420#9 -708596420#8 -708596420#7 -708596420#6 -708596420#5 -708596420#4 601468005#0 601468005#1 -889984918#1 -889984918#0 889984918#0 889984918#1 -601468005#1 -601468005#0 708596420#4 708596420#5 708596420#6 708596420#7 708642543#0 708642543#1 -791197833 -949252004#1 -949252004#0 708596420#2 708596420#3 708596420#4 708596420#5 708596420#6 708596420#7 708596420#8 708596420#9 708596420#10 708596420#11 708596420#12 708596420#13 708596420#14 708596420#15 708596420#16 708596420#17 -708596417 965302189 708596418#0 708596418#1 702914101#0 702914101#1 28924692#0 28924692#1 28924692#2 28924692#3 28924692#4 28924692#5 28924692#6 838419183#0 838419183#1 838419183#2 838419183#3 838419183#4 838419183#5 28924715#0 28924715#1 -28924715#1 -28924715#0 953227387#0 953227387#1 953227387#2 953227387#3 953227387#4 953227387#5 702906185#0 702906185#1" /></vehicle>
<vehicle id="8" depart="00.00"><route edges="702906185#2 702906185#3 702906185#4 702914102#0 702914102#1 708596413 708596411 708596419#0 708596419#1 708596417 -708596420#17 -708596420#16 -708596420#15 -708596420#14 -708596420#13 -708596420#12 -708596420#11 -708596420#10 -708596420#9 -708596420#8 -708596420#7 -708596420#6 -708596420#5 -708596420#4 -708596420#3 -708596420#2 -708596420#1 -708596420#0 25211489#0 25211489#1 25211489#2 889984918#0 889984918#1 -601468005#1 -601468005#0 708596420#4 708596420#5 708596420#6 708596420#7 708596420#8 708596420#9 708596420#10 708596420#11 708596420#12 708596420#13 708596420#14 708596420#15 708596420#16 708596420#17 -708596417 965302189 708596418#0 708596418#1 708596409 708596410#0 708596410#1 708596410#2 -38136736#8 -38136736#7 -38136736#6 -38136736#5 -38136736#4 -838419184#5 -838419184#4 -838419184#3 -838419184#2 -838419184#1 -838419184#0 -953227388 -472431976#14 -472431976#13 -472431976#12 -472431976#11 38107860#0 38107860#1 472432750#0 472432750#1 472432750#2 708521402#0 708521402#1 -37731777#6 -37731777#5 -37731777#4 -37731777#3 -37731777#2 -37731777#1 -37731777#0 -953227384#1 -953227384#0 953227384#0 953227384#1 37731777#0 37731777#1 37731777#2 37731777#3 37731777#4 37731777#5 37731777#6 37731777#7 37731777#8 -37731777#8 -37731777#7 37731777#7 37731777#8 37731777#9 37731777#10 37731777#11 37731777#12 37731777#13 708533143#0 708533143#1 708533143#2 708533143#3 708533143#4 -480685836#5 -480685836#4 -597136845#0 -709289364#1 -709289364#0 -708533143#2 -708533143#1 -708533143#0 -946030639#3 -946030639#2 -946030639#1 -946030639#0 953227387#0 953227387#1 953227387#2 953227387#3 953227387#4 953227387#5 -953227388 -472431976#14 -472431976#13 -472431976#12 -472431976#11 -472431976#10 -472431976#9 -472431976#8 -472431976#7 -472431976#6 -472431976#5 -472431976#4 472431976#4 472431976#5 472431976#6 472431976#7 472431976#8 472431976#9 472431976#10 472431976#11 472431976#12 472431976#13 472431976#14 953227388 702906185#0 702906185#1 702906185#2 702906185#3 702906185#4 702914102#0 702914102#1 708596413 708596414 -946030638#5 -946030638#4 -946030638#3 889984916#0 889984916#1 -37771359#3 -37771359#2 -37771359#1 -37771359#0 38136736#7 38136736#8 708596416#0 708596416#1 708596411 708596412 702914101#0 702914101#1 28924692#0 28924692#1 28924692#2 28924692#3 28924692#4 28924692#5 28924692#6 838419183#0 838419183#1 838419183#2 838419183#3 838419183#4 838419183#5 946030639#0 946030639#1 946030639#2 946030639#3 708533143#0" /></vehicle>
<vehicle id="9" depart="00.00"><route edges="708533143#1 708533143#2 708533143#3 708533143#4 708533143#5 708533143#6 708533143#7 708533143#8 708533143#9 708533143#10 708533143#11 704606544#0 704606544#1 704606544#2 709289370 838425490#0 480685836#0 480685836#1 -709289369#1 -709289369#0 704606544#2 709289370 838425490#0 480685836#0 480685836#1 480685836#2 480685836#3 480685836#4 480685836#5 -708533143#4 -708533143#3 -708533143#2 -708533143#1 -708533143#0 -37731777#13 -37731777#12 -37731777#11 -37731777#10 -37731777#9 -889984928#1 -889984928#0 889984929#0 889984929#1 -36730546#0 -38107860#2 -38107860#1 -38107860#0 472431976#11 472431976#12 472431976#13 472431976#14 953227388 702906185#0 702906185#1 702906185#2 702906185#3 702906185#4 702914102#0 702914102#1 708596413 708596411 708596412 702914101#0 702914101#1 28924692#0 28924692#1 28924692#2 28924692#3 28924692#4 28924692#5 28924692#6 -472431976#14 -472431976#13 -472431976#12 -472431976#11 38107860#0 38107860#1 38107860#2 477390127#0 477390127#1 889984930 889984929#1 -36730546#0 -38107860#2 -38107860#1 -38107860#0 472431976#11 472431976#12 472431976#13 472431976#14 953227388 702906185#0 702906185#1 702906185#2 702906185#3 702906185#4 702914102#0 702914102#1 708596413 708596411 708596419#0 708596419#1 708596417 -708596420#17 -708596420#16 -708596420#15 -708596420#14 -708596420#13 -708596420#12 -708596420#11 -708596420#10 -708596420#9 -708596420#8 -708596420#7 -708596420#6 -708596420#5 -708596420#4 601468005#0 601468005#1 -889984918#1 -889984918#0 889984918#0 889984918#1 -601468005#1 -601468005#0 708596420#4 708596420#5 708596420#6 708596420#7 708596420#8 708596420#9 708596420#10 708596420#11 708596420#12 708596420#13 708596420#14 708596420#15 708596420#16 708596420#17 -708596417 965302189 708596418#0 708596418#1 708596409 708596410#0 708596410#1 708596410#2 -38136736#8 -38136736#7 -38136736#6 -38136736#5 -38136736#4 -38136736#3 -38136736#2 -38136736#1 -38136736#0 38136736#0 38136736#1 38136736#2 38136736#3 38136736#4 38136736#5 38136736#6 38136736#7 38136736#8 708596416#0 708596416#1 708596411 708596419#0 708596419#1 708596417 -708596420#17 -708596420#16 -708596420#15 -708596420#14 -708596420#13 -708596420#12 -708596420#11 -708596420#10 -708596420#9 -708596420#8 -708596420#7 -708596420#6 -708596420#5 -708596420#4 -708596420#3 -708596420#2 -708596420#1 -708596420#0 -953227389 236354440#0 236354440#1 709685349 397989527#0 397989527#1 397989527#2 875229043 875229042#0 875229042#1 875229042#2" /></vehicle>
<vehicle id="10" depart="00.00"><route edges="838419179#0 838419179#1 838419179#2 838419179#3 838419179#4 838419180#0 838419180#1 813363002#0 813363002#1 813363002#2 163843397#0 163843397#1 -601529284#2 -601529284#1 -601529284#0 601529284#0 601529284#1 601529284#2 163843396#0 163843396#1 163843396#2 601455489 947077276#3 704626470#0 704626470#1 704626470#2 704626470#3 704626470#4 947077277#0 947077277#1 704626468#0 704626468#1 838419181#0 838419181#1 838419182 704626467#0 704626467#1 709685353#0 709685353#1 25211482 875229044#0 -601468009#5 -601468009#4 496615728 -496615727#1 889984920 37771321#0 37771321#1 37771321#2 37771321#3 -791197835 -708642543#4 889984885#0 889984885#1 -889984885#1 -889984885#0 -708642543#3 -708642543#2 -708642543#1 -708642543#0 -708596420#7 -708596420#6 -708596420#5 -708596420#4 -708596420#3 -708596420#2 -708596420#1 -708596420#0 -953227389 236354440#0 236354440#1 709685349 397989527#0 397989527#1 397989527#2 875229043 875229042#0 875229042#1 875229042#2 838419179#0 838419179#1 838419179#2 838419179#3 838419179#4 838419180#0 838419180#1 813363002#0 813363002#1 813363002#2 399835468#0 601455489 962177672 711379743#0 -593642478#3 -593642478#2 -593642478#1 -601861003#1 -601861003#0 136258914#3 136258914#4 711379743#0 711379743#1 711379743#2 711379743#3 711379742#0 711379742#1 37370971#0 223812344 838425490#1 838425490#2 838425491#0 838425491#1 838425491#2 838425491#3 838425491#4 156006453#0 156006453#1 704626470#2 704626470#3 704626470#4 947077277#0 947077277#1 704626468#0 704626468#1 838419181#0 838419181#1 838419182 704626467#0 704626467#1 709685353#0 709685353#1 25211482 875229044#0 -601468009#5 -601468009#4 -601468009#3 -601468009#2 -601468009#1 -601468009#0 601468009#0 601468009#1 601468009#2 601468009#3 496615728 -496615727#1 889984920 -949252004#1 -949252004#0 708596420#2 708596420#3 708596420#4 708596420#5 708596420#6 708596420#7 708596420#8 708596420#9 708596420#10 708596420#11 708596420#12 708596420#13 708596420#14 708596420#15 708596420#16 708596420#17 -708596417 965302189 708596418#0 708596418#1 708596409 708596410#0 708596410#1 708596410#2 -38136736#8 -38136736#7 -38136736#6 -38136736#5 -38136736#4 -838419184#5 -838419184#4 -28924715#5 -28924715#4 -28924715#3 -28924727#4 -889984937 200605636#1 200605636#2 200605636#3 200605636#4 953227387#2 953227387#3 953227387#4 953227387#5 -953227388 -472431976#14 -472431976#13 -472431976#12 -472431976#11 -472431976#10 36730573#0 36730573#1" /></vehicle>
<vehicle id="11" depart="00.00"><route edges="-36730573#1 -36730573#0 472431976#10 472431976#11 472431976#12 472431976#13 472431976#14 838419183#0 838419183#1 838419183#2 838419183#3 838419183#4 838419183#5 946030639#0 946030639#1 946030639#2 946030639#3 708533143#0 708533143#1 708533143#2 708533143#3 708533143#4 708533143#5 708533143#6 708533143#7 708533143#8 708533143#9 -136161120#2 -136161120#1 -136161120#0 136161120#0 136161120#1 136161120#2 -708533143#9 -708533143#8 -708533143#7 -708533143#6 -708533143#5 -708533143#4 -708533143#3 -708533143#2 -708533143#1 -708533143#0 -946030639#3 -946030639#2 -946030639#1 -684283623#1 -684283623#0 28924715#2 28924715#3 28924715#4 28924715#5 838419184#4 838419184#5 -838419184#5 -838419184#4 -838419184#3 -838419184#2 -838419184#1 -838419184#0 -953227388 838419183#0 838419183#1 838419183#2 838419183#3 838419183#4 838419183#5 946030639#0 946030639#1 946030639#2 946030639#3 708533143#0 708533143#1 708533143#2 708533143#3 708533143#4 708533143#5 708533143#6 708533143#7 708533143#8 708533143#9 708533143#10 708533143#11 704606544#0 704606544#1 704606544#2 709289370 838425490#0 838425490#1 838425490#2 242518345#0 242518345#1 37370971#0 223812344 480685836#0 480685836#1 480685836#2 480685836#3 480685836#4 480685836#5 -708533143#4 -708533143#3 -708533143#2 -708533143#1 -708533143#0 -946030639#3 -946030639#2 -946030639#1 -946030639#0 953227387#0 953227387#1 953227387#2 953227387#3 953227387#4 953227387#5 702906185#0 702906185#1 702906185#2 702906185#3 702906185#4 702914102#0 702914102#1 708596413 708596414 -946030638#5 -946030638#4 -946030638#3 -946030638#2 -946030638#1 946030638#1 -399816039#3 -399816039#2 399816039#2 399816039#3 946030638#2 946030638#3 946030638#4 946030638#5 708596415 708596419#0 708596419#1 708596417 -708596420#17 -708596420#16 -708596420#15 -708596420#14 -708596420#13 -708596420#12 -708596420#11 -708596420#10 -708596420#9 -708596420#8 -708596420#7 -708596420#6 -708596420#5 -708596420#4 -708596420#3 -708596420#2 -708596420#1 -708596420#0 -953227389 236354440#0 236354440#1 709685349 397989527#0 397989527#1 397989527#2 875229043 875229042#0 875229042#1 875229042#2 838419179#0 838419179#1 838419179#2 838419179#3 838419179#4 838419180#0 838419180#1 813363002#0 813363002#1 813363002#2 163843397#0 163843397#1 -601529284#2 -601529284#1 -601529284#0 601529284#0 601529284#1 601529284#2 163843396#0 163843396#1 163843396#2 601455489 947077276#3 704626470#0 704626470#1 704626470#2 704626470#3 704626470#4 163843398#0" /></vehicle>