<?xml version="1.0" encoding="UTF-8"?>

<!-- generated on 2023-05-01 00:40:24 by Eclipse SUMO netconvert Version 1.17.0
<configuration xmlns:xsi="http://www.w3.org/2001/XMLSchema-instance" xsi:noNamespaceSchemaLocation="http://sumo.dlr.de/xsd/netconvertConfiguration.xsd">

    <input>
        <osm-files value="lethanhnghi.osm"/>
    </input>

    <output>
        <output-file value="lethanhnghi.net.xml"/>
    </output>

    <projection>
        <proj.utm value="true"/>
    </projection>

</configuration>
-->

<net version="1.16" junctionCornerDetail="5" limitTurnSpeed="5.50" xmlns:xsi="http://www.w3.org/2001/XMLSchema-instance" xsi:noNamespaceSchemaLocation="http://sumo.dlr.de/xsd/net_file.xsd">

    <location netOffset="-586891.88,-2321953.95" convBoundary="0.00,0.00,2611.78,2498.72" origBoundary="105.836068,20.996128,105.861194,21.018749" projParameter="+proj=utm +zone=48 +ellps=WGS84 +datum=WGS84 +units=m +no_defs"/>

    <type id="highway.bridleway" priority="1" numLanes="1" speed="2.78" allow="pedestrian" oneway="1" width="2.00"/>
    <type id="highway.bus_guideway" priority="1" numLanes="1" speed="27.78" allow="bus" oneway="1"/>
    <type id="highway.cycleway" priority="1" numLanes="1" speed="5.56" allow="bicycle" oneway="0" width="1.00"/>
    <type id="highway.footway" priority="1" numLanes="1" speed="2.78" allow="pedestrian" oneway="1" width="2.00"/>
    <type id="highway.ford" priority="1" numLanes="1" speed="2.78" allow="army" oneway="0"/>
    <type id="highway.living_street" priority="2" numLanes="1" speed="2.78" disallow="tram rail_urban rail rail_electric rail_fast ship" oneway="0"/>
    <type id="highway.motorway" priority="14" numLanes="2" speed="39.44" allow="private emergency authority army vip passenger hov taxi bus coach delivery truck trailer motorcycle evehicle custom1 custom2" oneway="1"/>
    <type id="highway.motorway_link" priority="9" numLanes="1" speed="22.22" allow="private emergency authority army vip passenger hov taxi bus coach delivery truck trailer motorcycle evehicle custom1 custom2" oneway="1"/>
    <type id="highway.path" priority="1" numLanes="1" speed="5.56" allow="pedestrian bicycle" oneway="0" width="2.00"/>
    <type id="highway.pedestrian" priority="1" numLanes="1" speed="2.78" allow="pedestrian" oneway="1" width="2.00"/>
    <type id="highway.primary" priority="12" numLanes="2" speed="27.78" disallow="tram rail_urban rail rail_electric rail_fast ship" oneway="0"/>
    <type id="highway.primary_link" priority="7" numLanes="1" speed="22.22" disallow="tram rail_urban rail rail_electric rail_fast ship" oneway="0"/>
    <type id="highway.raceway" priority="15" numLanes="2" speed="83.33" allow="vip" oneway="0"/>
    <type id="highway.residential" priority="3" numLanes="1" speed="13.89" disallow="tram rail_urban rail rail_electric rail_fast ship" oneway="0"/>
    <type id="highway.secondary" priority="11" numLanes="1" speed="27.78" disallow="tram rail_urban rail rail_electric rail_fast ship" oneway="0"/>
    <type id="highway.secondary_link" priority="6" numLanes="1" speed="22.22" disallow="tram rail_urban rail rail_electric rail_fast ship" oneway="0"/>
    <type id="highway.service" priority="1" numLanes="1" speed="5.56" allow="pedestrian delivery bicycle" oneway="0"/>
    <type id="highway.stairs" priority="1" numLanes="1" speed="1.39" allow="pedestrian" oneway="1" width="2.00"/>
    <type id="highway.step" priority="1" numLanes="1" speed="1.39" allow="pedestrian" oneway="1" width="2.00"/>
    <type id="highway.steps" priority="1" numLanes="1" speed="1.39" allow="pedestrian" oneway="1" width="2.00"/>
    <type id="highway.tertiary" priority="10" numLanes="1" speed="22.22" disallow="tram rail_urban rail rail_electric rail_fast ship" oneway="0"/>
    <type id="highway.tertiary_link" priority="5" numLanes="1" speed="22.22" disallow="tram rail_urban rail rail_electric rail_fast ship" oneway="0"/>
    <type id="highway.track" priority="1" numLanes="1" speed="5.56" allow="pedestrian motorcycle moped bicycle" oneway="0"/>
    <type id="highway.trunk" priority="13" numLanes="2" speed="27.78" disallow="pedestrian bicycle tram rail_urban rail rail_electric rail_fast ship" oneway="0"/>
    <type id="highway.trunk_link" priority="8" numLanes="1" speed="22.22" disallow="pedestrian bicycle tram rail_urban rail rail_electric rail_fast ship" oneway="0"/>
    <type id="highway.unclassified" priority="4" numLanes="1" speed="13.89" disallow="tram rail_urban rail rail_electric rail_fast ship" oneway="0"/>
    <type id="highway.unsurfaced" priority="1" numLanes="1" speed="8.33" disallow="tram rail_urban rail rail_electric rail_fast ship" oneway="0"/>
    <type id="railway.highspeed" priority="21" numLanes="1" speed="69.44" allow="rail_fast" oneway="1"/>
    <type id="railway.light_rail" priority="19" numLanes="1" speed="27.78" allow="rail_urban" oneway="1"/>
    <type id="railway.preserved" priority="16" numLanes="1" speed="27.78" allow="rail" oneway="1"/>
    <type id="railway.rail" priority="20" numLanes="1" speed="44.44" allow="rail" oneway="1"/>
    <type id="railway.subway" priority="18" numLanes="1" speed="27.78" allow="rail_urban" oneway="1"/>
    <type id="railway.tram" priority="17" numLanes="1" speed="13.89" allow="tram" oneway="1"/>

    <edge id=":10076708248_0" function="internal">
        <lane id=":10076708248_0_0" index="0" disallow="tram rail_urban rail rail_electric rail_fast ship" speed="3.65" length="4.67" shape="1509.22,1275.81 1510.45,1275.06 1511.35,1275.04 1511.90,1275.74 1512.12,1277.17"/>
    </edge>
    <edge id=":10076708249_0" function="internal">
        <lane id=":10076708249_0_0" index="0" disallow="tram rail_urban rail rail_electric rail_fast ship" speed="13.89" length="14.63" shape="1508.12,1297.45 1495.95,1289.32"/>
    </edge>
    <edge id=":10076708249_1" function="internal">
        <lane id=":10076708249_1_0" index="0" disallow="tram rail_urban rail rail_electric rail_fast ship" speed="8.58" length="3.90" shape="1508.12,1297.45 1505.36,1294.92 1505.29,1294.78"/>
    </edge>
    <edge id=":10076708249_2" function="internal">
        <lane id=":10076708249_2_0" index="0" disallow="tram rail_urban rail rail_electric rail_fast ship" speed="3.65" length="1.44" shape="1508.12,1297.45 1507.53,1296.13"/>
    </edge>
    <edge id=":10076708249_9" function="internal">
        <lane id=":10076708249_9_0" index="0" disallow="tram rail_urban rail rail_electric rail_fast ship" speed="8.58" length="10.65" shape="1505.29,1294.78 1503.94,1291.94 1503.85,1288.51 1505.10,1284.63"/>
    </edge>
    <edge id=":10076708249_10" function="internal">
        <lane id=":10076708249_10_0" index="0" disallow="tram rail_urban rail rail_electric rail_fast ship" speed="3.65" length="3.23" shape="1507.53,1296.13 1507.62,1295.24 1508.38,1294.77 1509.82,1294.73"/>
    </edge>
    <edge id=":10076708249_3" function="internal">
        <lane id=":10076708249_3_0" index="0" disallow="tram rail_urban rail rail_electric rail_fast ship" speed="7.17" length="9.87" shape="1508.00,1285.99 1507.11,1288.68 1507.11,1291.04 1508.02,1293.05 1509.82,1294.73"/>
    </edge>
    <edge id=":10076708249_4" function="internal">
        <lane id=":10076708249_4_0" index="0" disallow="tram rail_urban rail rail_electric rail_fast ship" speed="7.75" length="14.82" shape="1508.00,1285.99 1505.72,1289.46 1502.95,1291.17 1499.70,1291.13 1495.95,1289.32"/>
    </edge>
    <edge id=":10076708249_5" function="internal">
        <lane id=":10076708249_5_0" index="0" disallow="tram rail_urban rail rail_electric rail_fast ship" speed="3.65" length="4.67" shape="1508.00,1285.99 1506.76,1286.73 1505.87,1286.76 1505.31,1286.06 1505.10,1284.63"/>
    </edge>
    <edge id=":10076708249_6" function="internal">
        <lane id=":10076708249_6_0" index="0" disallow="tram rail_urban rail rail_electric rail_fast ship" speed="6.20" length="9.05" shape="1497.74,1286.67 1500.03,1287.77 1502.02,1287.80 1503.71,1286.75 1505.10,1284.63"/>
    </edge>
    <edge id=":10076708249_7" function="internal">
        <lane id=":10076708249_7_0" index="0" disallow="tram rail_urban rail rail_electric rail_fast ship" speed="13.89" length="14.52" shape="1497.74,1286.67 1509.82,1294.73"/>
    </edge>
    <edge id=":10076708249_8" function="internal">
        <lane id=":10076708249_8_0" index="0" disallow="tram rail_urban rail rail_electric rail_fast ship" speed="3.65" length="1.44" shape="1497.74,1286.67 1498.29,1288.00"/>
    </edge>
    <edge id=":10076708249_11" function="internal">
        <lane id=":10076708249_11_0" index="0" disallow="tram rail_urban rail rail_electric rail_fast ship" speed="3.65" length="3.23" shape="1498.29,1288.00 1498.18,1288.89 1497.40,1289.33 1495.95,1289.32"/>
    </edge>
    <edge id=":10108025386_0" function="internal">
        <lane id=":10108025386_0_0" index="0" disallow="tram rail_urban rail rail_electric rail_fast ship" speed="5.84" length="7.02" shape="538.27,1404.26 538.08,1401.82 537.53,1400.07 536.61,1399.01 535.33,1398.65"/>
    </edge>
    <edge id=":10108025386_1" function="internal">
        <lane id=":10108025386_1_0" index="0" disallow="tram rail_urban rail rail_electric rail_fast ship" speed="27.78" length="13.86" shape="538.27,1404.26 538.26,1390.41"/>
        <lane id=":10108025386_1_1" index="1" disallow="tram rail_urban rail rail_electric rail_fast ship" speed="27.78" length="13.86" shape="541.47,1404.26 541.46,1390.40"/>
    </edge>
    <edge id=":10108025386_3" function="internal">
        <lane id=":10108025386_3_0" index="0" disallow="tram rail_urban rail rail_electric rail_fast ship" speed="3.65" length="1.44" shape="541.47,1404.26 542.27,1403.06"/>
    </edge>
    <edge id=":10108025386_11" function="internal">
        <lane id=":10108025386_11_0" index="0" disallow="tram rail_urban rail rail_electric rail_fast ship" speed="3.65" length="3.23" shape="542.27,1403.06 543.07,1402.66 543.87,1403.06 544.67,1404.26"/>
    </edge>
    <edge id=":10108025386_4" function="internal">
        <lane id=":10108025386_4_0" index="0" disallow="tram rail_urban rail rail_electric rail_fast ship" speed="27.78" length="13.87" shape="547.86,1390.40 547.87,1404.26"/>
        <lane id=":10108025386_4_1" index="1" disallow="tram rail_urban rail rail_electric rail_fast ship" speed="27.78" length="13.87" shape="544.66,1390.40 544.67,1404.26"/>
    </edge>
    <edge id=":10108025386_6" function="internal">
        <lane id=":10108025386_6_0" index="0" disallow="tram rail_urban rail rail_electric rail_fast ship" speed="7.98" length="3.69" shape="544.66,1390.40 544.08,1394.04"/>
    </edge>
    <edge id=":10108025386_7" function="internal">
        <lane id=":10108025386_7_0" index="0" disallow="tram rail_urban rail rail_electric rail_fast ship" speed="3.65" length="1.44" shape="544.66,1390.40 543.86,1391.60"/>
    </edge>
    <edge id=":10108025386_12" function="internal">
        <lane id=":10108025386_12_0" index="0" disallow="tram rail_urban rail rail_electric rail_fast ship" speed="7.98" length="10.54" shape="544.08,1394.04 542.33,1396.63 539.41,1398.17 535.33,1398.65"/>
    </edge>
    <edge id=":10108025386_13" function="internal">
        <lane id=":10108025386_13_0" index="0" disallow="tram rail_urban rail rail_electric rail_fast ship" speed="3.65" length="3.23" shape="543.86,1391.60 543.06,1392.00 542.26,1391.60 541.46,1390.40"/>
    </edge>
    <edge id=":10108025386_8" function="internal">
        <lane id=":10108025386_8_0" index="0" disallow="tram rail_urban rail rail_electric rail_fast ship" speed="5.62" length="6.51" shape="535.36,1395.45 536.63,1395.15 537.54,1394.20 538.08,1392.62 538.26,1390.41"/>
    </edge>
    <edge id=":10108025386_9" function="internal">
        <lane id=":10108025386_9_0" index="0" disallow="tram rail_urban rail rail_electric rail_fast ship" speed="8.13" length="14.58" shape="535.36,1395.45 539.43,1396.04 542.34,1397.70 544.09,1400.44 544.67,1404.26"/>
    </edge>
    <edge id=":10108025386_10" function="internal">
        <lane id=":10108025386_10_0" index="0" disallow="tram rail_urban rail rail_electric rail_fast ship" speed="3.65" length="4.67" shape="535.36,1395.45 536.55,1396.26 536.94,1397.07 536.53,1397.86 535.33,1398.65"/>
    </edge>
    <edge id=":10108025389_0" function="internal">
        <lane id=":10108025389_0_0" index="0" disallow="tram rail_urban rail rail_electric rail_fast ship" speed="27.78" length="0.49" shape="540.63,1297.24 540.61,1297.73"/>
        <lane id=":10108025389_0_1" index="1" disallow="tram rail_urban rail rail_electric rail_fast ship" speed="27.78" length="0.49" shape="543.83,1297.37 543.81,1297.86"/>
    </edge>
    <edge id=":10108025390_0" function="internal">
        <lane id=":10108025390_0_0" index="0" disallow="tram rail_urban rail rail_electric rail_fast ship" speed="27.78" length="0.24" shape="561.26,1254.61 561.26,1254.15"/>
        <lane id=":10108025390_0_1" index="1" disallow="tram rail_urban rail rail_electric rail_fast ship" speed="27.78" length="0.24" shape="558.07,1254.30 558.06,1254.09"/>
        <lane id=":10108025390_0_2" index="2" disallow="tram rail_urban rail rail_electric rail_fast ship" speed="27.78" length="0.24" shape="554.89,1253.99 554.86,1254.04"/>
    </edge>
    <edge id=":10108025396_0" function="internal">
        <lane id=":10108025396_0_0" index="0" disallow="tram rail_urban rail rail_electric rail_fast ship" speed="27.78" length="5.67" shape="1582.98,1406.96 1577.31,1406.78"/>
        <lane id=":10108025396_0_1" index="1" disallow="tram rail_urban rail rail_electric rail_fast ship" speed="27.78" length="5.67" shape="1583.11,1403.76 1577.44,1403.58"/>
        <lane id=":10108025396_0_2" index="2" disallow="tram rail_urban rail rail_electric rail_fast ship" speed="27.78" length="5.67" shape="1583.24,1400.57 1577.57,1400.38"/>
    </edge>
    <edge id=":10108025397_0" function="internal">
        <lane id=":10108025397_0_0" index="0" disallow="tram rail_urban rail rail_electric rail_fast ship" speed="16.67" length="0.30" shape="1528.43,1379.06 1528.73,1379.07"/>
        <lane id=":10108025397_0_1" index="1" disallow="tram rail_urban rail rail_electric rail_fast ship" speed="16.67" length="0.30" shape="1528.30,1382.25 1528.60,1382.27"/>
        <lane id=":10108025397_0_2" index="2" disallow="tram rail_urban rail rail_electric rail_fast ship" speed="16.67" length="0.30" shape="1528.17,1385.45 1528.46,1385.46"/>
        <lane id=":10108025397_0_3" index="3" disallow="tram rail_urban rail rail_electric rail_fast ship" speed="16.67" length="0.30" shape="1528.04,1388.65 1528.33,1388.66"/>
    </edge>
    <edge id=":10114776467_0" function="internal">
        <lane id=":10114776467_0_0" index="0" disallow="tram rail_urban rail rail_electric rail_fast ship" speed="13.89" length="9.40" shape="1129.85,644.83 1123.57,651.83"/>
    </edge>
    <edge id=":10114776467_1" function="internal">
        <lane id=":10114776467_1_0" index="0" allow="pedestrian delivery bicycle" speed="6.86" length="3.27" shape="1129.85,644.83 1127.71,646.63 1127.25,646.77"/>
    </edge>
    <edge id=":10114776467_7" function="internal">
        <lane id=":10114776467_7_0" index="0" allow="pedestrian delivery bicycle" speed="6.86" length="6.92" shape="1127.25,646.77 1125.51,647.30 1123.25,646.86 1120.94,645.29"/>
    </edge>
    <edge id=":10114776467_2" function="internal">
        <lane id=":10114776467_2_0" index="0" allow="pedestrian delivery bicycle" speed="5.03" length="5.01" shape="1123.09,642.92 1124.23,643.69 1125.33,643.91 1126.41,643.58 1127.47,642.70"/>
    </edge>
    <edge id=":10114776467_3" function="internal">
        <lane id=":10114776467_3_0" index="0" allow="pedestrian delivery bicycle" speed="6.88" length="10.16" shape="1123.09,642.92 1124.87,645.07 1125.54,647.27 1125.11,649.52 1123.57,651.83"/>
    </edge>
    <edge id=":10114776467_4" function="internal">
        <lane id=":10114776467_4_0" index="0" allow="pedestrian delivery bicycle" speed="3.65" length="4.67" shape="1123.09,642.92 1123.44,644.32 1123.20,645.18 1122.36,645.50 1120.94,645.29"/>
    </edge>
    <edge id=":10114776467_5" function="internal">
        <lane id=":10114776467_5_0" index="0" allow="pedestrian delivery bicycle" speed="5.06" length="5.03" shape="1121.19,649.69 1121.95,648.56 1122.16,647.44 1121.82,646.35 1120.94,645.29"/>
    </edge>
    <edge id=":10114776467_6" function="internal">
        <lane id=":10114776467_6_0" index="0" disallow="tram rail_urban rail rail_electric rail_fast ship" speed="13.89" length="9.40" shape="1121.19,649.69 1127.47,642.70"/>
    </edge>
    <edge id=":10114776468_0" function="internal">
        <lane id=":10114776468_0_0" index="0" allow="pedestrian delivery bicycle" speed="4.72" length="4.15" shape="1082.26,610.16 1081.46,609.72 1080.60,609.73 1079.67,610.18 1078.66,611.07"/>
    </edge>
    <edge id=":10114776468_1" function="internal">
        <lane id=":10114776468_1_0" index="0" allow="pedestrian delivery bicycle" speed="6.51" length="9.42" shape="1082.26,610.16 1080.81,608.35 1080.43,606.39 1081.13,604.27 1082.90,602.00"/>
    </edge>
    <edge id=":10114776468_2" function="internal">
        <lane id=":10114776468_2_0" index="0" allow="pedestrian delivery bicycle" speed="3.65" length="4.67" shape="1082.26,610.16 1081.88,608.77 1082.10,607.90 1082.93,607.56 1084.36,607.75"/>
    </edge>
    <edge id=":10114776468_3" function="internal">
        <lane id=":10114776468_3_0" index="0" allow="pedestrian delivery bicycle" speed="4.57" length="4.08" shape="1085.18,604.24 1084.29,605.31 1083.86,606.26 1083.88,607.07 1084.36,607.75"/>
    </edge>
    <edge id=":10114776468_4" function="internal">
        <lane id=":10114776468_4_0" index="0" disallow="tram rail_urban rail rail_electric rail_fast ship" speed="13.89" length="9.45" shape="1085.18,604.24 1078.66,611.07"/>
    </edge>
    <edge id=":10114776468_5" function="internal">
        <lane id=":10114776468_5_0" index="0" disallow="tram rail_urban rail rail_electric rail_fast ship" speed="13.89" length="9.53" shape="1076.32,608.90 1082.90,602.00"/>
    </edge>
    <edge id=":10114776468_6" function="internal">
        <lane id=":10114776468_6_0" index="0" allow="pedestrian delivery bicycle" speed="6.63" length="3.59" shape="1076.32,608.90 1078.39,607.13 1079.20,606.82"/>
    </edge>
    <edge id=":10114776468_7" function="internal">
        <lane id=":10114776468_7_0" index="0" allow="pedestrian delivery bicycle" speed="6.63" length="5.60" shape="1079.20,606.82 1080.42,606.35 1082.41,606.56 1084.36,607.75"/>
    </edge>
    <edge id=":10114776474_0" function="internal">
        <lane id=":10114776474_0_0" index="0" disallow="tram rail_urban rail rail_electric rail_fast ship" speed="27.78" length="6.44" shape="947.77,627.89 941.32,627.80"/>
    </edge>
    <edge id=":10114776474_1" function="internal">
        <lane id=":10114776474_1_0" index="0" disallow="tram rail_urban rail rail_electric rail_fast ship" speed="27.78" length="6.52" shape="941.33,624.60 947.84,624.69"/>
    </edge>
    <edge id=":10114776475_0" function="internal">
        <lane id=":10114776475_0_0" index="0" disallow="tram rail_urban rail rail_electric rail_fast ship" speed="27.78" length="3.71" shape="910.59,628.40 906.88,628.52"/>
    </edge>
    <edge id=":10114776475_1" function="internal">
        <lane id=":10114776475_1_0" index="0" disallow="tram rail_urban rail rail_electric rail_fast ship" speed="27.78" length="3.68" shape="906.80,625.32 910.47,625.20"/>
    </edge>
    <edge id=":10126205546_0" function="internal">
        <lane id=":10126205546_0_0" index="0" allow="pedestrian delivery bicycle" speed="5.56" length="9.37" shape="874.40,879.08 871.69,879.32 869.90,879.93 868.19,880.89 865.71,882.18"/>
    </edge>
    <edge id=":10126205546_1" function="internal">
        <lane id=":10126205546_1_0" index="0" allow="pedestrian delivery bicycle" speed="5.56" length="10.86" shape="874.40,879.08 871.36,878.83 869.23,878.04 867.22,876.75 864.56,875.06"/>
    </edge>
    <edge id=":10126205546_2" function="internal">
        <lane id=":10126205546_2_0" index="0" allow="pedestrian delivery bicycle" speed="3.65" length="4.67" shape="874.40,879.08 873.19,878.29 872.78,877.50 873.16,876.69 874.35,875.88"/>
    </edge>
    <edge id=":10126205546_3" function="internal">
        <lane id=":10126205546_3_0" index="0" allow="pedestrian delivery bicycle" speed="5.56" length="9.16" shape="866.17,872.29 868.45,873.80 870.03,874.95 871.73,875.66 874.35,875.88"/>
    </edge>
    <edge id=":10126205546_4" function="internal">
        <lane id=":10126205546_4_0" index="0" allow="pedestrian delivery bicycle" speed="5.56" length="14.19" shape="866.17,872.29 869.62,874.93 870.70,877.45 869.39,879.87 865.71,882.18"/>
    </edge>
    <edge id=":10126205546_5" function="internal">
        <lane id=":10126205546_5_0" index="0" allow="pedestrian delivery bicycle" speed="3.65" length="4.67" shape="866.17,872.29 866.80,873.58 866.75,874.47 866.00,874.97 864.56,875.06"/>
    </edge>
    <edge id=":10126205546_6" function="internal">
        <lane id=":10126205546_6_0" index="0" allow="pedestrian delivery bicycle" speed="4.66" length="6.05" shape="864.37,879.27 865.94,878.29 866.49,877.26 866.03,876.18 864.56,875.06"/>
    </edge>
    <edge id=":10126205546_7" function="internal">
        <lane id=":10126205546_7_0" index="0" allow="pedestrian delivery bicycle" speed="5.56" length="10.69" shape="864.37,879.27 867.14,877.87 869.19,876.82 871.32,876.14 874.35,875.88"/>
    </edge>
    <edge id=":10126205546_8" function="internal">
        <lane id=":10126205546_8_0" index="0" allow="pedestrian delivery bicycle" speed="3.65" length="4.67" shape="864.37,879.27 865.79,879.50 866.49,880.05 866.46,880.95 865.71,882.18"/>
    </edge>
    <edge id=":10126205548_0" function="internal">
        <lane id=":10126205548_0_0" index="0" allow="pedestrian delivery bicycle" speed="5.56" length="7.82" shape="799.65,884.83 797.52,884.57 795.99,883.69 795.07,882.19 794.75,880.07"/>
    </edge>
    <edge id=":10126205548_1" function="internal">
        <lane id=":10126205548_1_0" index="0" allow="pedestrian delivery bicycle" speed="3.90" length="2.61" shape="797.95,880.04 798.05,880.75 798.36,881.25 798.87,881.54 799.58,881.63"/>
    </edge>
    <edge id=":10126205550_0" function="internal">
        <lane id=":10126205550_0_0" index="0" allow="pedestrian delivery bicycle" speed="5.56" length="7.69" shape="794.72,876.87 795.00,874.78 795.87,873.28 797.35,872.36 799.43,872.02"/>
    </edge>
    <edge id=":10126205550_1" function="internal">
        <lane id=":10126205550_1_0" index="0" allow="pedestrian delivery bicycle" speed="3.90" length="2.56" shape="799.49,875.22 798.80,875.34 798.30,875.64 798.01,876.14 797.92,876.84"/>
    </edge>
    <edge id=":10126205561_0" function="internal">
        <lane id=":10126205561_0_0" index="0" allow="pedestrian delivery bicycle" speed="5.56" length="5.01" shape="574.65,988.27 569.64,988.34"/>
    </edge>
    <edge id=":10126205561_1" function="internal">
        <lane id=":10126205561_1_0" index="0" allow="pedestrian delivery bicycle" speed="3.65" length="1.44" shape="574.65,988.27 573.44,987.49"/>
    </edge>
    <edge id=":10126205561_4" function="internal">
        <lane id=":10126205561_4_0" index="0" allow="pedestrian delivery bicycle" speed="3.65" length="3.23" shape="573.44,987.49 573.03,986.69 573.42,985.89 574.61,985.07"/>
    </edge>
    <edge id=":10126205561_2" function="internal">
        <lane id=":10126205561_2_0" index="0" allow="pedestrian delivery bicycle" speed="5.56" length="5.01" shape="569.60,985.14 574.61,985.07"/>
    </edge>
    <edge id=":10126205561_3" function="internal">
        <lane id=":10126205561_3_0" index="0" allow="pedestrian delivery bicycle" speed="3.65" length="1.44" shape="569.60,985.14 570.81,985.92"/>
    </edge>
    <edge id=":10126205561_5" function="internal">
        <lane id=":10126205561_5_0" index="0" allow="pedestrian delivery bicycle" speed="3.65" length="3.23" shape="570.81,985.92 571.22,986.72 570.83,987.52 569.64,988.34"/>
    </edge>
    <edge id=":10126205571_0" function="internal">
        <lane id=":10126205571_0_0" index="0" disallow="tram rail_urban rail rail_electric rail_fast ship" speed="8.29" length="4.89" shape="751.17,617.73 748.04,621.49"/>
    </edge>
    <edge id=":10126205571_1" function="internal">
        <lane id=":10126205571_1_0" index="0" disallow="tram rail_urban rail rail_electric rail_fast ship" speed="9.98" length="7.23" shape="744.84,621.41 745.17,619.42 745.97,618.23 747.19,617.19 748.73,615.66"/>
    </edge>
    <edge id=":10126205595_0" function="internal">
        <lane id=":10126205595_0_0" index="0" disallow="tram rail_urban rail rail_electric rail_fast ship" speed="13.89" length="4.42" shape="1065.28,642.89 1062.86,646.59"/>
    </edge>
    <edge id=":10126205595_1" function="internal">
        <lane id=":10126205595_1_0" index="0" disallow="tram rail_urban rail rail_electric rail_fast ship" speed="13.89" length="4.42" shape="1060.18,644.84 1062.60,641.14"/>
    </edge>
    <edge id=":10126205596_0" function="internal">
        <lane id=":10126205596_0_0" index="0" allow="pedestrian delivery bicycle" speed="5.56" length="3.77" shape="1087.52,656.36 1084.95,659.11"/>
    </edge>
    <edge id=":10126205596_1" function="internal">
        <lane id=":10126205596_1_0" index="0" allow="pedestrian delivery bicycle" speed="3.65" length="1.44" shape="1087.52,656.36 1086.12,656.69"/>
    </edge>
    <edge id=":10126205596_4" function="internal">
        <lane id=":10126205596_4_0" index="0" allow="pedestrian delivery bicycle" speed="3.65" length="3.23" shape="1086.12,656.69 1085.26,656.43 1084.95,655.59 1085.18,654.17"/>
    </edge>
    <edge id=":10126205596_2" function="internal">
        <lane id=":10126205596_2_0" index="0" allow="pedestrian delivery bicycle" speed="5.56" length="3.77" shape="1082.61,656.92 1085.18,654.17"/>
    </edge>
    <edge id=":10126205596_3" function="internal">
        <lane id=":10126205596_3_0" index="0" allow="pedestrian delivery bicycle" speed="3.65" length="1.44" shape="1082.61,656.92 1084.02,656.59"/>
    </edge>
    <edge id=":10126205596_5" function="internal">
        <lane id=":10126205596_5_0" index="0" allow="pedestrian delivery bicycle" speed="3.65" length="3.23" shape="1084.02,656.59 1084.87,656.85 1085.18,657.69 1084.95,659.11"/>
    </edge>
    <edge id=":10126205597_0" function="internal">
        <lane id=":10126205597_0_0" index="0" allow="pedestrian delivery bicycle" speed="5.56" length="3.49" shape="1145.35,708.23 1142.88,710.70"/>
    </edge>
    <edge id=":10126205597_1" function="internal">
        <lane id=":10126205597_1_0" index="0" allow="pedestrian delivery bicycle" speed="3.65" length="1.44" shape="1145.35,708.23 1143.94,708.52"/>
    </edge>
    <edge id=":10126205597_4" function="internal">
        <lane id=":10126205597_4_0" index="0" allow="pedestrian delivery bicycle" speed="3.65" length="3.23" shape="1143.94,708.52 1143.09,708.24 1142.80,707.39 1143.08,705.98"/>
    </edge>
    <edge id=":10126205597_2" function="internal">
        <lane id=":10126205597_2_0" index="0" allow="pedestrian delivery bicycle" speed="5.56" length="3.48" shape="1140.62,708.44 1143.08,705.98"/>
    </edge>
    <edge id=":10126205597_3" function="internal">
        <lane id=":10126205597_3_0" index="0" allow="pedestrian delivery bicycle" speed="3.65" length="1.44" shape="1140.62,708.44 1142.03,708.16"/>
    </edge>
    <edge id=":10126205597_5" function="internal">
        <lane id=":10126205597_5_0" index="0" allow="pedestrian delivery bicycle" speed="3.65" length="3.23" shape="1142.03,708.16 1142.88,708.44 1143.17,709.29 1142.88,710.70"/>
    </edge>
    <edge id=":10126209535_0" function="internal">
        <lane id=":10126209535_0_0" index="0" disallow="tram rail_urban rail rail_electric rail_fast ship" speed="13.89" length="4.41" shape="910.94,804.70 906.71,805.94"/>
    </edge>
    <edge id=":10126209535_1" function="internal">
        <lane id=":10126209535_1_0" index="0" disallow="tram rail_urban rail rail_electric rail_fast ship" speed="13.89" length="4.49" shape="905.76,802.89 910.07,801.62"/>
    </edge>
    <edge id=":10126209536_0" function="internal">
        <lane id=":10126209536_0_0" index="0" disallow="tram rail_urban rail rail_electric rail_fast ship" speed="13.89" length="6.03" shape="919.61,675.13 913.87,673.28"/>
    </edge>
    <edge id=":10126209536_1" function="internal">
        <lane id=":10126209536_1_0" index="0" disallow="tram rail_urban rail rail_electric rail_fast ship" speed="13.89" length="6.03" shape="914.85,670.23 920.59,672.08"/>
    </edge>
    <edge id=":10126209537_0" function="internal">
        <lane id=":10126209537_0_0" index="0" disallow="tram rail_urban rail rail_electric rail_fast ship" speed="13.89" length="4.46" shape="931.69,643.58 928.41,640.55"/>
    </edge>
    <edge id=":10126209537_1" function="internal">
        <lane id=":10126209537_1_0" index="0" disallow="tram rail_urban rail rail_electric rail_fast ship" speed="13.89" length="4.44" shape="930.59,638.21 933.85,641.22"/>
    </edge>
    <edge id=":10126209538_0" function="internal">
        <lane id=":10126209538_0_0" index="0" disallow="tram rail_urban rail rail_electric rail_fast ship" speed="13.89" length="6.45" shape="996.60,908.42 992.31,913.23"/>
    </edge>
    <edge id=":10126209538_1" function="internal">
        <lane id=":10126209538_1_0" index="0" disallow="tram rail_urban rail rail_electric rail_fast ship" speed="13.89" length="6.45" shape="989.92,911.10 994.21,906.29"/>
    </edge>
    <edge id=":10126209545_0" function="internal">
        <lane id=":10126209545_0_0" index="0" allow="pedestrian delivery bicycle" speed="5.56" length="4.88" shape="1063.15,978.07 1063.11,973.20"/>
    </edge>
    <edge id=":10126209545_1" function="internal">