<routes><vType id="car" accel="2.6" decel="4.5" sigma="0.5" length="4.5" minGap="2.5" maxSpeed="50" /><vehicle id="71" type="car" depart="0.00" color="1,0,0"><route edges="-897413529#1 36730573#1" /></vehicle><vehicle id="94" type="car" depart="36.00" color="1,0,0"><route edges="791197834 -472431976#5" /></vehicle><vehicle id="70" type="car" depart="72.00" color="1,0,0"><route edges="-496615727#1 -28924715#2" /></vehicle><vehicle id="3" type="car" depart="108.00" color="1,0,0"><route edges="-37731777#6 -12174148#2" /></vehicle><vehicle id="74" type="car" depart="144.00" color="1,0,0"><route edges="-38136736#3 28924719#1" /></vehicle><vehicle id="53" type="car" depart="180.00" color="1,0,0"><route edges="951487947#1 596788386#1" /></vehicle><vehicle id="47" type="car" depart="216.00" color="1,0,0"><route edges="-889984917 11552263#1" /></vehicle><vehicle id="85" type="car" depart="252.00" color="1,0,0"><route edges="480685836#3 -838419184#4" /></vehicle><vehicle id="40" type="car" depart="288.00" color="1,0,0"><route edges="-28924715#4 709685351#0" /></vehicle><vehicle id="89" type="car" depart="324.00" color="1,0,0"><route edges="38107924#1 -37731777#10" /></vehicle><vehicle id="30" type="car" depart="360.00" color="1,0,0"><route edges="-28924715#3 -36185525#1" /></vehicle><vehicle id="5" type="car" depart="396.00" color="1,0,0"><route edges="889984933 -36730573#1" /></vehicle><vehicle id="22" type="car" depart="432.00" color="1,0,0"><route edges="38136736#1 889984937" /></vehicle><vehicle id="73" type="car" depart="468.00" color="1,0,0"><route edges="-12174148#2 -953227384#0" /></vehicle><vehicle id="62" type="car" depart="504.00" color="1,0,0"><route edges="28924692#1 838425491#4" /></vehicle><vehicle id="10" type="car" depart="540.00" color="1,0,0"><route edges="-457841319 -601529284#1" /></vehicle><vehicle id="68" type="car" depart="576.00" color="1,0,0"><route edges="-601468005#3 -28924727#4" /></vehicle><vehicle id="3" type="car" depart="612.00" color="1,0,0"><route edges="472432750#2 708596420#3" /></vehicle><vehicle id="58" type="car" depart="648.00" color="1,0,0"><route edges="12174148#2 -28924715#4" /></vehicle><vehicle id="4" type="car" depart="684.00" color="1,0,0"><route edges="601468005#2 601529284#1" /></vehicle><vehicle id="98" type="car" depart="720.00" color="1,0,0"><route edges="399816039#2 -838419184#5" /></vehicle><vehicle id="78" type="car" depart="756.00" color="1,0,0"><route edges="708642543#3 399816039#2" /></vehicle><vehicle id="1" type="car" depart="792.00" color="1,0,0"><route edges="37731777#7 36730573#1" /></vehicle><vehicle id="2" type="car" depart="828.00" color="1,0,0"><route edges="-597126909#1 163843397#0" /></vehicle><vehicle id="39" type="car" depart="864.00" color="1,0,0"><route edges="704606545#0 477390127#4" /></vehicle><vehicle id="66" type="car" depart="900.00" color="1,0,0"><route edges="-709360981#2 708596420#9" /></vehicle><vehicle id="67" type="car" depart="936.00" color="1,0,0"><route edges="709289369#1 -28924719#1" /></vehicle><vehicle id="60" type="car" depart="972.00" color="1,0,0"><route edges="-38136736#3 -601468005#2" /></vehicle><vehicle id="96" type="car" depart="1008.00" color="1,0,0"><route edges="-11552263#1 601529284#1" /></vehicle><vehicle id="77" type="car" depart="1044.00" color="1,0,0"><route edges="397989528#0 36730573#1" /></vehicle><vehicle id="27" type="car" depart="1080.00" color="1,0,0"><route edges="953227387#2 -889984931" /></vehicle><vehicle id="10" type="car" depart="1116.00" color="1,0,0"><route edges="-472431976#6 -37731777#10" /></vehicle><vehicle id="91" type="car" depart="1152.00" color="1,0,0"><route edges="-709289368#1 709289374#1" /></vehicle><vehicle id="48" type="car" depart="1188.00" color="1,0,0"><route edges="37862085 -36084921#0" /></vehicle><vehicle id="21" type="car" depart="1224.00" color="1,0,0"><route edges="12174148#2 -28924727#2" /></vehicle><vehicle id="9" type="car" depart="1260.00" color="1,0,0"><route edges="38136736#1 -37731777#7" /></vehicle><vehicle id="39" type="car" depart="1296.00" color="1,0,0"><route edges="-457841319 399835468#4" /></vehicle><vehicle id="50" type="car" depart="1332.00" color="1,0,0"><route edges="709289364#1 397989527#1" /></vehicle><vehicle id="74" type="car" depart="1368.00" color="1,0,0"><route edges="-601861003#1 457841319" /></vehicle><vehicle id="14" type="car" depart="1404.00" color="1,0,0"><route edges="-601529284#1 -12174148#2" /></vehicle><vehicle id="41" type="car" depart="1440.00" color="1,0,0"><route edges="-601529284#1 480685836#3" /></vehicle><vehicle id="48" type="car" depart="1476.00" color="1,0,0"><route edges="38136736#1 -473304000#0" /></vehicle><vehicle id="80" type="car" depart="1512.00" color="1,0,0"><route edges="709289370 709289364#1" /></vehicle><vehicle id="25" type="car" depart="1548.00" color="1,0,0"><route edges="-601529284#1 889984928#0" /></vehicle><vehicle id="86" type="car" depart="1584.00" color="1,0,0"><route edges="-601468011#1 -36084921#0" /></vehicle><vehicle id="49" type="car" depart="1620.00" color="1,0,0"><route edges="36084921#0 813363002#0" /></vehicle><vehicle id="48" type="car" depart="1656.00" color="1,0,0"><route edges="37771321#4 37370971#0" /></vehicle><vehicle id="79" type="car" depart="1692.00" color="1,0,0"><route edges="28924715#2 -708533143#0" /></vehicle><vehicle id="76" type="car" depart="1728.00" color="1,0,0"><route edges="-601861003#2 11552263#1" /></vehicle><vehicle id="10" type="car" depart="1764.00" color="1,0,0"><route edges="36185525#0 889984918#1" /></vehicle><vehicle id="60" type="car" depart="1800.00" color="1,0,0"><route edges="-28924715#4 -601529284#1" /></vehicle><vehicle id="14" type="car" depart="1836.00" color="1,0,0"><route edges="889984918#1 472431976#1" /></vehicle><vehicle id="15" type="car" depart="1872.00" color="1,0,0"><route edges="-28924715#4 136161120#1" /></vehicle><vehicle id="93" type="car" depart="1908.00" color="1,0,0"><route edges="399816039#2 838425491#0" /></vehicle><vehicle id="68" type="car" depart="1944.00" color="1,0,0"><route edges="-28924727#4 838419184#5" /></vehicle><vehicle id="30" type="car" depart="1980.00" color="1,0,0"><route edges="683871816#0 -683871821#0" /></vehicle><vehicle id="52" type="car" depart="2016.00" color="1,0,0"><route edges="36084921#1 708642543#3" /></vehicle><vehicle id="77" type="car" depart="2052.00" color="1,0,0"><route edges="-601468005#1 597126909#1" /></vehicle><vehicle id="76" type="car" depart="2088.00" color="1,0,0"><route edges="36730553#0 -36084921#1" /></vehicle><vehicle id="80" type="car" depart="2124.00" color="1,0,0"><route edges="-601529284#1 11552263#1" /></vehicle><vehicle id="96" type="car" depart="2160.00" color="1,0,0"><route edges="-37771359#4 889984918#1" /></vehicle><vehicle id="57" type="car" depart="2196.00" color="1,0,0"><route edges="-601468005#3 -601468009#3" /></vehicle><vehicle id="26" type="car" depart="2232.00" color="1,0,0"><route edges="37771321#4 36084921#1" /></vehicle><vehicle id="61" type="car" depart="2268.00" color="1,0,0"><route edges="-708596420#14 -838419184#3" /></vehicle><vehicle id="43" type="car" depart="2304.00" color="1,0,0"><route edges="28924715#4 838425490#0" /></vehicle><vehicle id="15" type="car" depart="2340.00" color="1,0,0"><route edges="-28924719#1 838425491#0" /></vehicle><vehicle id="6" type="car" depart="2376.00" color="1,0,0"><route edges="889984916#1 477390127#2" /></vehicle><vehicle id="95" type="car" depart="2412.00" color="1,0,0"><route edges="704626470#2 -946030639#0" /></vehicle><vehicle id="88" type="car" depart="2448.00" color="1,0,0"><route edges="889984937 601529284#1" /></vehicle><vehicle id="33" type="car" depart="2484.00" color="1,0,0"><route edges="480685836#2 163843395" /></vehicle><vehicle id="13" type="car" depart="2520.00" color="1,0,0"><route edges="-480685836#3 496615727#1" /></vehicle><vehicle id="63" type="car" depart="2556.00" color="1,0,0"><route edges="601529284#1 -12174148#2" /></vehicle><vehicle id="100" type="car" depart="2592.00" color="1,0,0"><route edges="-708533143#3 36185525#2" /></vehicle><vehicle id="10" type="car" depart="2628.00" color="1,0,0"><route edges="-472838714#2 -37771321#4" /></vehicle><vehicle id="21" type="car" depart="2664.00" color="1,0,0"><route edges="-457841319 -136161120#1" /></vehicle><vehicle id="50" type="car" depart="2700.00" color="1,0,0"><route edges="-37731777#7 11552263#1" /></vehicle><vehicle id="46" type="car" depart="2736.00" color="1,0,0"><route edges="28924719#1 399835468#4" /></vehicle><vehicle id="94" type="car" depart="2772.00" color="1,0,0"><route edges="-708521404#1 -37771321#4" /></vehicle><vehicle id="37" type="car" depart="2808.00" color="1,0,0"><route edges="838425491#4 399816039#2" /></vehicle><vehicle id="64" type="car" depart="2844.00" color="1,0,0"><route edges="472838714#1 480685836#3" /></vehicle><vehicle id="58" type="car" depart="2880.00" color="1,0,0"><route edges="-708596420#2 38107860#2" /></vehicle><vehicle id="33" type="car" depart="2916.00" color="1,0,0"><route edges="-708596420#14 457841319" /></vehicle><vehicle id="66" type="car" depart="2952.00" color="1,0,0"><route edges="708596420#10 -136161120#1" /></vehicle><vehicle id="88" type="car" depart="2988.00" color="1,0,0"><route edges="704626467#0 -37731777#4" /></vehicle><vehicle id="66" type="car" depart="3024.00" color="1,0,0"><route edges="-11552263#1 -36084921#1" /></vehicle><vehicle id="62" type="car" depart="3060.00" color="1,0,0"><route edges="36730553#0 791197833" /></vehicle><vehicle id="77" type="car" depart="3096.00" color="1,0,0"><route edges="858616456#0 -38136736#7" /></vehicle><vehicle id="1" type="car" depart="3132.00" color="1,0,0"><route edges="-953227384#0 889984918#1" /></vehicle><vehicle id="73" type="car" depart="3168.00" color="1,0,0"><route edges="838419181#0 708642543#3" /></vehicle><vehicle id="7" type="car" depart="3204.00" color="1,0,0"><route edges="-601468005#3 -683871816#3" /></vehicle><vehicle id="81" type="car" depart="3240.00" color="1,0,0"><route edges="-38136736#1 -601861003#1" /></vehicle><vehicle id="22" type="car" depart="3276.00" color="1,0,0"><route edges="-889984934 704626470#3" /></vehicle><vehicle id="58" type="car" depart="3312.00" color="1,0,0"><route edges="472431976#10 -472431976#11" /></vehicle><vehicle id="2" type="car" depart="3348.00" color="1,0,0"><route edges="-457841319 163843395" /></vehicle><vehicle id="91" type="car" depart="3384.00" color="1,0,0"><route edges="838419181#0 25211489#3" /></vehicle><vehicle id="77" type="car" depart="3420.00" color="1,0,0"><route edges="702906185#4 480685836#3" /></vehicle><vehicle id="20" type="car" depart="3456.00" color="1,0,0"><route edges="838419178#1 28924692#5" /></vehicle><vehicle id="2" type="car" depart="3492.00" color="1,0,0"><route edges="-889984917 163843397#1" /></vehicle><vehicle id="9" type="car" depart="3528.00" color="1,0,0"><route edges="704626470#1 -683871821#0" /></vehicle><vehicle id="58" type="car" depart="3564.00" color="1,0,0"><route edges="-472431976#11 709289370" /></vehicle><vehicle id="93" type="car" depart="3600.00" color="1,0,0"><route edges="28924692#2 399835468#4" /></vehicle><vehicle id="5" type="car" depart="3636.00" color="1,0,0"><route edges="-399816039#2 -28924715#4" /></vehicle><vehicle id="100" type="car" depart="3672.00" color="1,0,0"><route edges="-496615727#1 12174148#2" /></vehicle><vehicle id="40" type="car" depart="3708.00" color="1,0,0"><route edges="-12174148#2 -683871816#2" /></vehicle><vehicle id="32" type="car" depart="3744.00" color="1,0,0"><route edges="889984918#1 136161120#1" /></vehicle><vehicle id="80" type="car" depart="3780.00" color="1,0,0"><route edges="-11552263#1 708533143#2" /></vehicle><vehicle id="5" type="car" depart="3816.00" color="1,0,0"><route edges="-683871816#3 -472431976#11" /></vehicle><vehicle id="76" type="car" depart="3852.00" color="1,0,0"><route edges="38136736#4 472431976#5" /></vehicle><vehicle id="3" type="car" depart="3888.00" color="1,0,0"><route edges="-708596420#3 601468005#2" /></vehicle><vehicle id="86" type="car" depart="3924.00" color="1,0,0"><route edges="838419178#1 -889984918#1" /></vehicle><vehicle id="92" type="car" depart="3960.00" color="1,0,0"><route edges="28924715#4 -12174148#2" /></vehicle><vehicle id="56" type="car" depart="3996.00" color="1,0,0"><route edges="37731777#9 -708596420#12" /></vehicle><vehicle id="22" type="car" depart="4032.00" color="1,0,0"><route edges="399816039#2 601529284#1" /></vehicle><vehicle id="33" type="car" depart="4068.00" color="1,0,0"><route edges="-709289369#1 472431976#7" /></vehicle><vehicle id="91" type="car" depart="4104.00" color="1,0,0"><route edges="889984918#1 -399816039#2" /></vehicle><vehicle id="33" type="car" depart="4140.00" color="1,0,0"><route edges="704626468#0 28103274" /></vehicle><vehicle id="75" type="car" depart="4176.00" color="1,0,0"><route edges="889984918#1 -36084921#0" /></vehicle><vehicle id="73" type="car" depart="4212.00" color="1,0,0"><route edges="-889984918#1 -399816039#1" /></vehicle><vehicle id="13" type="car" depart="4248.00" color="1,0,0"><route edges="-601468009#3 838419183#1" /></vehicle><vehicle id="1" type="car" depart="4284.00" color="1,0,0"><route edges="36084921#0 -889984932" /></vehicle><vehicle id="7" type="car" depart="4320.00" color="1,0,0"><route edges="889984937 -36084921#0" /></vehicle><vehicle id="26" type="car" depart="4356.00" color="1,0,0"><route edges="-11552263#1 683871816#3" /></vehicle><vehicle id="25" type="car" depart="4392.00" color="1,0,0"><route edges="36730546#2 709289368#1" /></vehicle><vehicle id="1" type="car" depart="4428.00" color="1,0,0"><route edges="28924715#4 889984918#1" /></vehicle><vehicle id="15" type="car" depart="4464.00" color="1,0,0"><route edges="-708642543#1 -601468009#3" /></vehicle><vehicle id="80" type="car" depart="4500.00" color="1,0,0"><route edges="838419179#4 36085035#1" /></vehicle><vehicle id="65" type="car" depart="4536.00" color="1,0,0"><route edges="-12174148#2 -12174148#2" /></vehicle><vehicle id="81" type="car" depart="4572.00" color="1,0,0"><route edges="-11552263#1 601529284#1" /></vehicle><vehicle id="91" type="car" depart="4608.00" color="1,0,0"><route edges="38136736#4 -37731777#10" /></vehicle><vehicle id="7" type="car" depart="4644.00" color="1,0,0"><route edges="704626468#0 702906185#2" /></vehicle><vehicle id="71" type="car" depart="4680.00" color="1,0,0"><route edges="38136736#3 37771359#4" /></vehicle><vehicle id="25" type="car" depart="4716.00" color="1,0,0"><route edges="12174148#2 596788386#0" /></vehicle><vehicle id="100" type="car" depart="4752.00" color="1,0,0"><route edges="-889984920 875229044#0" /></vehicle><vehicle id="45" type="car" depart="4788.00" color="1,0,0"><route edges="37731777#7 472432750#2" /></vehicle><vehicle id="6" type="car" depart="4824.00" color="1,0,0"><route edges="858616456#2 946030639#0" /></vehicle><vehicle id="9" type="car" depart="4860.00" color="1,0,0"><route edges="36084921#1 -37731777#10" /></vehicle><vehicle id="30" type="car" depart="4896.00" color="1,0,0"><route edges="36084921#0 838425491#4" /></vehicle><vehicle id="27" type="car" depart="4932.00" color="1,0,0"><route edges="-472432750#2 -601529284#1" /></vehicle><vehicle id="24" type="car" depart="4968.00" color="1,0,0"><route edges="-601529284#1 -601468009#3" /></vehicle><vehicle id="23" type="car" depart="5004.00" color="1,0,0"><route edges="708533143#5 36185525#2" /></vehicle><vehicle id="59" type="car" depart="5040.00" color="1,0,0"><route edges="-36084921#1 28924715#4" /></vehicle><vehicle id="16" type="car" depart="5076.00" color="1,0,0"><route edges="593642481 -28924715#1" /></vehicle><vehicle id="24" type="car" depart="5112.00" color="1,0,0"><route edges="-472431976#4 -136161120#0" /></vehicle><vehicle id="56" type="car" depart="5148.00" color="1,0,0"><route edges="593642481 11552263#1" /></vehicle><vehicle id="52" type="car" depart="5184.00" color="1,0,0"><route edges="-11552263#1 -601529284#1" /></vehicle><vehicle id="65" type="car" depart="5220.00" color="1,0,0"><route edges="-472431976#10 37771321#2" /></vehicle><vehicle id="33" type="car" depart="5256.00" color="1,0,0"><route edges="-949252004#1 12174148#2" /></vehicle><vehicle id="98" type="car" depart="5292.00" color="1,0,0"><route edges="-708596422#1 -28924715#4" /></vehicle><vehicle id="30" type="car" depart="5328.00" color="1,0,0"><route edges="-708596420#9 399835468#4" /></vehicle><vehicle id="86" type="car" depart="5364.00" color="1,0,0"><route edges="36084921#1 37862085" /></vehicle><vehicle id="13" type="car" depart="5400.00" color="1,0,0"><route edges="-38136736#3 -28924719#1" /></vehicle><vehicle id="37" type="car" depart="5436.00" color="1,0,0"><route edges="675310291#0 601468005#2" /></vehicle><vehicle id="12" type="car" depart="5472.00" color="1,0,0"><route edges="472431976#1 889984930" /></vehicle><vehicle id="38" type="car" depart="5508.00" color="1,0,0"><route edges="-702929170#1 601529284#1" /></vehicle><vehicle id="20" type="car" depart="5544.00" color="1,0,0"><route edges="-601529284#1 38136736#1" /></vehicle><vehicle id="53" type="car" depart="5580.00" color="1,0,0"><route edges="838419184#5 163843396#1" /></vehicle><vehicle id="98" type="car" depart="5616.00" color="1,0,0"><route edges="38107860#1 949252004#1" /></vehicle><vehicle id="62" type="car" depart="5652.00" color="1,0,0"><route edges="28924715#2 -601529284#1" /></vehicle><vehicle id="91" type="car" depart="5688.00" color="1,0,0"><route edges="889984929#0 472432750#2" /></vehicle><vehicle id="1" type="car" depart="5724.00" color="1,0,0"><route edges="-708596420#9 -683871816#3" /></vehicle><vehicle id="21" type="car" depart="5760.00" color="1,0,0"><route edges="-11552263#1 -36185525#0" /></vehicle><vehicle id="96" type="car" depart="5796.00" color="1,0,0"><route edges="946030638#3 37731777#3" /></vehicle><vehicle id="99" type="car" depart="5832.00" color="1,0,0"><route edges="684283615#0 -601529284#1" /></vehicle><vehicle id="42" type="car" depart="5868.00" color="1,0,0"><route edges="709289370 597136845#0" /></vehicle><vehicle id="82" type="car" depart="5904.00" color="1,0,0"><route edges="838419178#1 28103274" /></vehicle><vehicle id="32" type="car" depart="5940.00" color="1,0,0"><route edges="838425491#2 37771321#2" /></vehicle><vehicle id="12" type="car" depart="5976.00" color="1,0,0"><route edges="-38136736#1 838425490#0" /></vehicle><vehicle id="31" type="car" depart="6012.00" color="1,0,0"><route edges="-683871816#2 875229042#0" /></vehicle><vehicle id="77" type="car" depart="6048.00" color="1,0,0"><route edges="36185525#0 11552263#1" /></vehicle><vehicle id="59" type="car" depart="6084.00" color="1,0,0"><route edges="36084921#0 -946030638#1" /></vehicle><vehicle id="100" type="car" depart="6120.00" color="1,0,0"><route edges="-28924719#1 -28924719#1" /></vehicle><vehicle id="40" type="car" depart="6156.00" color="1,0,0"><route edges="-28924727#4 838419184#5" /></vehicle><vehicle id="53" type="car" depart="6192.00" color="1,0,0"><route edges="-791197833 -158465673#1" /></vehicle><vehicle id="91" type="car" depart="6228.00" color="1,0,0"><route edges="-889984930 399835468#4" /></vehicle><vehicle id="2" type="car" depart="6264.00" color="1,0,0"><route edges="38136736#3 838425491#2" /></vehicle><vehicle id="62" type="car" depart="6300.00" color="1,0,0"><route edges="-791197833 889984927#0" /></vehicle><vehicle id="32" type="car" depart="6336.00" color="1,0,0"><route edges="-11552263#1 -38136736#7" /></vehicle><vehicle id="87" type="car" depart="6372.00" color="1,0,0"><route edges="28924715#2 457841319" /></vehicle><vehicle id="8" type="car" depart="6408.00" color="1,0,0"><route edges="-946030638#2 704606545#0" /></vehicle><vehicle id="64" type="car" depart="6444.00" color="1,0,0"><route edges="36185525#0 -12174148#1" /></vehicle><vehicle id="6" type="car" depart="6480.00" color="1,0,0"><route edges="-889984925#1 399835468#4" /></vehicle><vehicle id="66" type="car" depart="6516.00" color="1,0,0"><route edges="-601468009#3 -472432750#2" /></vehicle><vehicle id="100" type="car" depart="6552.00" color="1,0,0"><route edges="397989527#2 163843403" /></vehicle><vehicle id="17" type="car" depart="6588.00" color="1,0,0"><route edges="949252004#1 889984925#1" /></vehicle><vehicle id="21" type="car" depart="6624.00" color="1,0,0"><route edges="-702929170#1 -28924715#2" /></vehicle><vehicle id="66" type="car" depart="6660.00" color="1,0,0"><route edges="-457841319 12174148#5" /></vehicle><vehicle id="69" type="car" depart="6696.00" color="1,0,0"><route edges="-946030639#2 12174148#5" /></vehicle><vehicle id="77" type="car" depart="6732.00" color="1,0,0"><route edges="-36084921#1 -708596420#9" /></vehicle><vehicle id="31" type="car" depart="6768.00" color="1,0,0"><route edges="-897470229 601529284#1" /></vehicle><vehicle id="49" type="car" depart="6804.00" color="1,0,0"><route edges="-37731777#3 399835468#4" /></vehicle><vehicle id="100" type="car" depart="6840.00" color="1,0,0"><route edges="-889984918#1 702906185#2" /></vehicle><vehicle id="16" type="car" depart="6876.00" color="1,0,0"><route edges="473304000#0 -473304000#0" /></vehicle><vehicle id="14" type="car" depart="6912.00" color="1,0,0"><route edges="597136845#0 -946030627#0" /></vehicle><vehicle id="89" type="car" depart="6948.00" color="1,0,0"><route edges="709279411#0 -158465673#1" /></vehicle><vehicle id="93" type="car" depart="6984.00" color="1,0,0"><route edges="-708550656 28924719#1" /></vehicle><vehicle id="98" type="car" depart="7020.00" color="1,0,0"><route edges="-601861003#1 1021040349" /></vehicle><vehicle id="57" type="car" depart="7056.00" color="1,0,0"><route edges="37731777#0 -601529284#1" /></vehicle><vehicle id="38" type="car" depart="7092.00" color="1,0,0"><route edges="791197834 -708533143#2" /></vehicle><vehicle id="62" type="car" depart="7128.00" color="1,0,0"><route edges="480685836#3 889984928#0" /></vehicle><vehicle id="80" type="car" depart="7164.00" color="1,0,0"><route edges="-36730546#0 838419178#2" /></vehicle><vehicle id="4" type="car" depart="7200.00" color="1,0,0"><route edges="-399816039#2 163843396#0" /></vehicle><vehicle id="84" type="car" depart="7236.00" color="1,0,0"><route edges="-37731777#7 875229044#0" /></vehicle><vehicle id="22" type="car" depart="7272.00" color="1,0,0"><route edges="-708533143#2 28924719#1" /></vehicle><vehicle id="25" type="car" depart="7308.00" color="1,0,0"><route edges="946030638#0 -38136736#2" /></vehicle><vehicle id="22" type="car" depart="7344.00" color="1,0,0"><route edges="-28924719#1 596788386#1" /></vehicle><vehicle id="32" type="car" depart="7380.00" color="1,0,0"><route edges="-12174148#5 -37771321#3" /></vehicle><vehicle id="60" type="car" depart="7416.00" color="1,0,0"><route edges="-601468009#1 -12174148#2" /></vehicle><vehicle id="62" type="car" depart="7452.00" color="1,0,0"><route edges="-709289369#1 -36084921#0" /></vehicle><vehicle id="82" type="car" depart="7488.00" color="1,0,0"><route edges="875229044#0 28924715#4" /></vehicle><vehicle id="37" type="car" depart="7524.00" color="1,0,0"><route edges="-12174148#2 601529284#1" /></vehicle><vehicle id="92" type="car" depart="7560.00" color="1,0,0"><route edges="-597136845#0 838419179#4" /></vehicle><vehicle id="21" type="car" depart="7596.00" color="1,0,0"><route edges="-12174148#2 -37731777#7" /></vehicle><vehicle id="28" type="car" depart="7632.00" color="1,0,0"><route edges="-889984907 708642543#1" /></vehicle><vehicle id="39" type="car" depart="7668.00" color="1,0,0"><route edges="875229044#1 889984933" /></vehicle><vehicle id="65" type="car" depart="7704.00" color="1,0,0"><route edges="-472432750#2 -946030638#1" /></vehicle><vehicle id="27" type="car" depart="7740.00" color="1,0,0"><route edges="711379743#3 708596420#14" /></vehicle><vehicle id="10" type="car" depart="7776.00" color="1,0,0"><route edges="889984918#1 -36084921#1" /></vehicle><vehicle id="50" type="car" depart="7812.00" color="1,0,0"><route edges="-12174148#2 11552263#1" /></vehicle><vehicle id="9" type="car" depart="7848.00" color="1,0,0"><route edges="709685351#0 480685836#3" /></vehicle><vehicle id="59" type="car" depart="7884.00" color="1,0,0"><route edges="-946030638#1 474551102" /></vehicle><vehicle id="10" type="car" depart="7920.00" color="1,0,0"><route edges="12174148#2 709289369#1" /></vehicle><vehicle id="21" type="car" depart="7956.00" color="1,0,0"><route edges="-601529284#1 601529284#1" /></vehicle><vehicle id="31" type="car" depart="7992.00" color="1,0,0"><route edges="-38136736#1 37862085" /></vehicle><vehicle id="18" type="car" depart="8028.00" color="1,0,0"><route edges="-708550656 -889984916#1" /></vehicle><vehicle id="94" type="car" depart="8064.00" color="1,0,0"><route edges="-601529284#1 -28924715#2" /></vehicle><vehicle id="1" type="car" depart="8100.00" color="1,0,0"><route edges="-36085035#1 472432750#2" /></vehicle><vehicle id="57" type="car" depart="8136.00" color="1,0,0"><route edges="472431976#6 472431976#1" /></vehicle><vehicle id="21" type="car" depart="8172.00" color="1,0,0"><route edges="12174148#2 37862085" /></vehicle><vehicle id="48" type="car" depart="8208.00" color="1,0,0"><route edges="704606545#0 946030639#0" /></vehicle><vehicle id="87" type="car" depart="8244.00" color="1,0,0"><route edges="-889984926 601529284#1" /></vehicle><vehicle id="68" type="car" depart="8280.00" color="1,0,0"><route edges="708533143#3 711379742#1" /></vehicle><vehicle id="25" type="car" depart="8316.00" color="1,0,0"><route edges="472431976#8 -601468009#3" /></vehicle><vehicle id="16" type="car" depart="8352.00" color="1,0,0"><route edges="708533143#4 37731777#5" /></vehicle><vehicle id="78" type="car" depart="8388.00" color="1,0,0"><route edges="601529284#1 601529284#1" /></vehicle><vehicle id="4" type="car" depart="8424.00" color="1,0,0"><route edges="-472432750#2 -36084921#0" /></vehicle><vehicle id="68" type="car" depart="8460.00" color="1,0,0"><route edges="684283623#0 472431976#7" /></vehicle><vehicle id="27" type="car" depart="8496.00" color="1,0,0"><route edges="-11552263#1 -28924719#1" /></vehicle><vehicle id="88" type="car" depart="8532.00" color="1,0,0"><route edges="-946030639#0 457841319" /></vehicle><vehicle id="68" type="car" depart="8568.00" color="1,0,0"><route edges="-37771321#1 596788386#1" /></vehicle><vehicle id="22" type="car" depart="8604.00" color="1,0,0"><route edges="-709289373#1 457841319" /></vehicle><vehicle id="4" type="car" depart="8640.00" color="1,0,0"><route edges="-601529284#1 -601529284#1" /></vehicle><vehicle id="26" type="car" depart="8676.00" color="1,0,0"><route edges="-38136736#1 480685836#2" /></vehicle><vehicle id="9" type="car" depart="8712.00" color="1,0,0"><route edges="38136736#1 -36084921#0" /></vehicle><vehicle id="43" type="car" depart="8748.00" color="1,0,0"><route edges="-37731777#2 709289369#1" /></vehicle><vehicle id="5" type="car" depart="8784.00" color="1,0,0"><route edges="-601468011#1 875229044#1" /></vehicle><vehicle id="50" type="car" depart="8820.00" color="1,0,0"><route edges="946030638#2 708596420#12" /></vehicle><vehicle id="31" type="car" depart="8856.00" color="1,0,0"><route edges="-37771359#4 -36730553#0" /></vehicle><vehicle id="38" type="car" depart="8892.00" color="1,0,0"><route edges="708642543#1 11552263#1" /></vehicle><vehicle id="82" type="car" depart="8928.00" color="1,0,0"><route edges="-12174148#2 -36730573#1" /></vehicle><vehicle id="27" type="car" depart="8964.00" color="1,0,0"><route edges="-601529284#1 -601529284#1" /></vehicle><vehicle id="22" type="car" depart="9000.00" color="1,0,0"><route edges="-12174148#2 601468005#3" /></vehicle><vehicle id="29" type="car" depart="9036.00" color="1,0,0"><route edges="-200605636#0 -708550657" /></vehicle><vehicle id="9" type="car" depart="9072.00" color="1,0,0"><route edges="593642481 601529284#1" /></vehicle><vehicle id="37" type="car" depart="9108.00" color="1,0,0"><route edges="704606544#0 -601529284#1" /></vehicle><vehicle id="14" type="car" depart="9144.00" color="1,0,0"><route edges="-399816039#1 397989527#2" /></vehicle><vehicle id="83" type="car" depart="9180.00" color="1,0,0"><route edges="704626470#3 601529284#1" /></vehicle><vehicle id="83" type="car" depart="9216.00" color="1,0,0"><route edges="601529284#1 11552263#1" /></vehicle><vehicle id="1" type="car" depart="9252.00" color="1,0,0"><route edges="601468009#1 838425490#0" /></vehicle><vehicle id="29" type="car" depart="9288.00" color="1,0,0"><route edges="38107860#2 -38136736#1" /></vehicle><vehicle id="79" type="car" depart="9324.00" color="1,0,0"><route edges="708596420#3 -28924715#2" /></vehicle><vehicle id="79" type="car" depart="9360.00" color="1,0,0"><route edges="-11552263#1 -708596420#3" /></vehicle><vehicle id="9" type="car" depart="9396.00" color="1,0,0"><route edges="-889984908 889984937" /></vehicle><vehicle id="69" type="car" depart="9432.00" color="1,0,0"><route edges="601529284#1 12174148#5" /></vehicle><vehicle id="1" type="car" depart="9468.00" color="1,0,0"><route edges="37370971#1 11552263#1" /></vehicle><vehicle id="84" type="car" depart="9504.00" color="1,0,0"><route edges="838419184#2 397989527#1" /></vehicle><vehicle id="8" type="car" depart="9540.00" color="1,0,0"><route edges="-838419184#5 889984908" /></vehicle><vehicle id="17" type="car" depart="9576.00" color="1,0,0"><route edges="708596416#0 11552263#1" /></vehicle><vehicle id="25" type="car" depart="9612.00" color="1,0,0"><route edges="889984935 -36084921#0" /></vehicle><vehicle id="5" type="car" depart="9648.00" color="1,0,0"><route edges="838419178#1 163843395" /></vehicle><vehicle id="83" type="car" depart="9684.00" color="1,0,0"><route edges="28924715#2 838419179#3" /></vehicle><vehicle id="23" type="car" depart="9720.00" color="1,0,0"><route edges="-946030639#0 12174148#5" /></vehicle><vehicle id="33" type="car" depart="9756.00" color="1,0,0"><route edges="-597126909#2 477390127#0" /></vehicle><vehicle id="6" type="car" depart="9792.00" color="1,0,0"><route edges="601468009#1 4724