<routes xmlns:xsi="http://www.w3.org/2001/XMLSchema-instance" xsi:noNamespaceSchemaLocation="http://sumo.dlr.de/xsd/routes_file.xsd">
    <trip id="71" depart="0.00" from="-897413529#1" to="36730573#1" />
    <trip id="94" depart="36.00" from="791197834" to="-472431976#5" />
    <trip id="70" depart="72.00" from="-496615727#1" to="-28924715#2" />
    <trip id="3" depart="108.00" from="-37731777#6" to="-12174148#2" />
    <trip id="74" depart="144.00" from="-38136736#3" to="28924719#1" />
    <trip id="53" depart="180.00" from="951487947#1" to="596788386#1" />
    <trip id="47" depart="216.00" from="-889984917" to="11552263#1" />
    <trip id="85" depart="252.00" from="480685836#3" to="-838419184#4" />
    <trip id="40" depart="288.00" from="-28924715#4" to="709685351#0" />
    <trip id="89" depart="324.00" from="38107924#1" to="-37731777#10" />
    <trip id="30" depart="360.00" from="-28924715#3" to="-36185525#1" />
    <trip id="5" depart="396.00" from="889984933" to="-36730573#1" />
    <trip id="22" depart="432.00" from="38136736#1" to="889984937" />
    <trip id="73" depart="468.00" from="-12174148#2" to="-953227384#0" />
    <trip id="62" depart="504.00" from="28924692#1" to="838425491#4" />
    <trip id="10" depart="540.00" from="-457841319" to="-601529284#1" />
    <trip id="68" depart="576.00" from="-601468005#3" to="-28924727#4" />
    <trip id="3" depart="612.00" from="472432750#2" to="708596420#3" />
    <trip id="58" depart="648.00" from="12174148#2" to="-28924715#4" />
    <trip id="4" depart="684.00" from="601468005#2" to="601529284#1" />
    <trip id="98" depart="720.00" from="399816039#2" to="-838419184#5" />
    <trip id="78" depart="756.00" from="708642543#3" to="399816039#2" />
    <trip id="1" depart="792.00" from="37731777#7" to="36730573#1" />
    <trip id="2" depart="828.00" from="-597126909#1" to="163843397#0" />
    <trip id="39" depart="864.00" from="704606545#0" to="477390127#4" />
    <trip id="66" depart="900.00" from="-709360981#2" to="708596420#9" />
    <trip id="67" depart="936.00" from="709289369#1" to="-28924719#1" />
    <trip id="60" depart="972.00" from="-38136736#3" to="-601468005#2" />
    <trip id="96" depart="1008.00" from="-11552263#1" to="601529284#1" />
    <trip id="77" depart="1044.00" from="397989528#0" to="36730573#1" />
    <trip id="27" depart="1080.00" from="953227387#2" to="-889984931" />
    <trip id="10" depart="1116.00" from="-472431976#6" to="-37731777#10" />
    <trip id="91" depart="1152.00" from="-709289368#1" to="709289374#1" />
    <trip id="48" depart="1188.00" from="37862085" to="-36084921#0" />
    <trip id="21" depart="1224.00" from="12174148#2" to="-28924727#2" />
    <trip id="9" depart="1260.00" from="38136736#1" to="-37731777#7" />
    <trip id="39" depart="1296.00" from="-457841319" to="399835468#4" />
    <trip id="50" depart="1332.00" from="709289364#1" to="397989527#1" />
    <trip id="74" depart="1368.00" from="-601861003#1" to="457841319" />
    <trip id="14" depart="1404.00" from="-601529284#1" to="-12174148#2" />
    <trip id="41" depart="1440.00" from="-601529284#1" to="480685836#3" />
    <trip id="48" depart="1476.00" from="38136736#1" to="-473304000#0" />
    <trip id="80" depart="1512.00" from="709289370" to="709289364#1" />
    <trip id="25" depart="1548.00" from="-601529284#1" to="889984928#0" />
    <trip id="86" depart="1584.00" from="-601468011#1" to="-36084921#0" />
    <trip id="49" depart="1620.00" from="36084921#0" to="813363002#0" />
    <trip id="48" depart="1656.00" from="37771321#4" to="37370971#0" />
    <trip id="79" depart="1692.00" from="28924715#2" to="-708533143#0" />
    <trip id="76" depart="1728.00" from="-601861003#2" to="11552263#1" />
    <trip id="10" depart="1764.00" from="36185525#0" to="889984918#1" />
    <trip id="60" depart="1800.00" from="-28924715#4" to="-601529284#1" />
    <trip id="14" depart="1836.00" from="889984918#1" to="472431976#1" />
    <trip id="15" depart="1872.00" from="-28924715#4" to="136161120#1" />
    <trip id="93" depart="1908.00" from="399816039#2" to="838425491#0" />
    <trip id="68" depart="1944.00" from="-28924727#4" to="838419184#5" />
    <trip id="30" depart="1980.00" from="683871816#0" to="-683871821#0" />
    <trip id="52" depart="2016.00" from="36084921#1" to="708642543#3" />
    <trip id="77" depart="2052.00" from="-601468005#1" to="597126909#1" />
    <trip id="76" depart="2088.00" from="36730553#0" to="-36084921#1" />
    <trip id="80" depart="2124.00" from="-601529284#1" to="11552263#1" />
    <trip id="96" depart="2160.00" from="-37771359#4" to="889984918#1" />
    <trip id="57" depart="2196.00" from="-601468005#3" to="-601468009#3" />
    <trip id="26" depart="2232.00" from="37771321#4" to="36084921#1" />
    <trip id="61" depart="2268.00" from="-708596420#14" to="-838419184#3" />
    <trip id="43" depart="2304.00" from="28924715#4" to="838425490#0" />
    <trip id="15" depart="2340.00" from="-28924719#1" to="838425491#0" />
    <trip id="6" depart="2376.00" from="889984916#1" to="477390127#2" />
    <trip id="95" depart="2412.00" from="704626470#2" to="-946030639#0" />
    <trip id="88" depart="2448.00" from="889984937" to="601529284#1" />
    <trip id="33" depart="2484.00" from="480685836#2" to="163843395" />
    <trip id="13" depart="2520.00" from="-480685836#3" to="496615727#1" />
    <trip id="63" depart="2556.00" from="601529284#1" to="-12174148#2" />
    <trip id="100" depart="2592.00" from="-708533143#3" to="36185525#2" />
    <trip id="10" depart="2628.00" from="-472838714#2" to="-37771321#4" />
    <trip id="21" depart="2664.00" from="-457841319" to="-136161120#1" />
    <trip id="50" depart="2700.00" from="-37731777#7" to="11552263#1" />
    <trip id="46" depart="2736.00" from="28924719#1" to="399835468#4" />
    <trip id="94" depart="2772.00" from="-708521404#1" to="-37771321#4" />
    <trip id="37" depart="2808.00" from="838425491#4" to="399816039#2" />
    <trip id="64" depart="2844.00" from="472838714#1" to="480685836#3" />
    <trip id="58" depart="2880.00" from="-708596420#2" to="38107860#2" />
    <trip id="33" depart="2916.00" from="-708596420#14" to="457841319" />
    <trip id="66" depart="2952.00" from="708596420#10" to="-136161120#1" />
    <trip id="88" depart="2988.00" from="704626467#0" to="-37731777#4" />
    <trip id="66" depart="3024.00" from="-11552263#1" to="-36084921#1" />
    <trip id="62" depart="3060.00" from="36730553#0" to="791197833" />
    <trip id="77" depart="3096.00" from="858616456#0" to="-38136736#7" />
    <trip id="1" depart="3132.00" from="-953227384#0" to="889984918#1" />
    <trip id="73" depart="3168.00" from="838419181#0" to="708642543#3" />
    <trip id="7" depart="3204.00" from="-601468005#3" to="-683871816#3" />
    <trip id="81" depart="3240.00" from="-38136736#1" to="-601861003#1" />
    <trip id="22" depart="3276.00" from="-889984934" to="704626470#3" />
    <trip id="58" depart="3312.00" from="472431976#10" to="-472431976#11" />
    <trip id="2" depart="3348.00" from="-457841319" to="163843395" />
    <trip id="91" depart="3384.00" from="838419181#0" to="25211489#3" />
    <trip id="77" depart="3420.00" from="702906185#4" to="480685836#3" />
    <trip id="20" depart="3456.00" from="838419178#1" to="28924692#5" />
    <trip id="2" depart="3492.00" from="-889984917" to="163843397#1" />
    <trip id="9" depart="3528.00" from="704626470#1" to="-683871821#0" />
    <trip id="58" depart="3564.00" from="-472431976#11" to="709289370" />
    <trip id="93" depart="3600.00" from="28924692#2" to="399835468#4" />
    <trip id="5" depart="3636.00" from="-399816039#2" to="-28924715#4" />
    <trip id="100" depart="3672.00" from="-496615727#1" to="12174148#2" />
    <trip id="40" depart="3708.00" from="-12174148#2" to="-683871816#2" />
    <trip id="32" depart="3744.00" from="889984918#1" to="136161120#1" />
    <trip id="80" depart="3780.00" from="-11552263#1" to="708533143#2" />
    <trip id="5" depart="3816.00" from="-683871816#3" to="-472431976#11" />
    <trip id="76" depart="3852.00" from="38136736#4" to="472431976#5" />
    <trip id="3" depart="3888.00" from="-708596420#3" to="601468005#2" />
    <trip id="86" depart="3924.00" from="838419178#1" to="-889984918#1" />
    <trip id="92" depart="3960.00" from="28924715#4" to="-12174148#2" />
    <trip id="56" depart="3996.00" from="37731777#9" to="-708596420#12" />
    <trip id="22" depart="4032.00" from="399816039#2" to="601529284#1" />
    <trip id="33" depart="4068.00" from="-709289369#1" to="472431976#7" />
    <trip id="91" depart="4104.00" from="889984918#1" to="-399816039#2" />
    <trip id="33" depart="4140.00" from="704626468#0" to="28103274" />
    <trip id="75" depart="4176.00" from="889984918#1" to="-36084921#0" />
    <trip id="73" depart="4212.00" from="-889984918#1" to="-399816039#1" />
    <trip id="13" depart="4248.00" from="-601468009#3" to="838419183#1" />
    <trip id="1" depart="4284.00" from="36084921#0" to="-889984932" />
    <trip id="7" depart="4320.00" from="889984937" to="-36084921#0" />
    <trip id="26" depart="4356.00" from="-11552263#1" to="683871816#3" />
    <trip id="25" depart="4392.00" from="36730546#2" to="709289368#1" />
    <trip id="1" depart="4428.00" from="28924715#4" to="889984918#1" />
    <trip id="15" depart="4464.00" from="-708642543#1" to="-601468009#3" />
    <trip id="80" depart="4500.00" from="838419179#4" to="36085035#1" />
    <trip id="65" depart="4536.00" from="-12174148#2" to="-12174148#2" />
    <trip id="81" depart="4572.00" from="-11552263#1" to="601529284#1" />
    <trip id="91" depart="4608.00" from="38136736#4" to="-37731777#10" />
    <trip id="7" depart="4644.00" from="704626468#0" to="702906185#2" />
    <trip id="71" depart="4680.00" from="38136736#3" to="37771359#4" />
    <trip id="25" depart="4716.00" from="12174148#2" to="596788386#0" />
    <trip id="100" depart="4752.00" from="-889984920" to="875229044#0" />
    <trip id="45" depart="4788.00" from="37731777#7" to="472432750#2" />
    <trip id="6" depart="4824.00" from="858616456#2" to="946030639#0" />
    <trip id="9" depart="4860.00" from="36084921#1" to="-37731777#10" />
    <trip id="30" depart="4896.00" from="36084921#0" to="838425491#4" />
    <trip id="27" depart="4932.00" from="-472432750#2" to="-601529284#1" />
    <trip id="24" depart="4968.00" from="-601529284#1" to="-601468009#3" />
    <trip id="23" depart="5004.00" from="708533143#5" to="36185525#2" />
    <trip id="59" depart="5040.00" from="-36084921#1" to="28924715#4" />
    <trip id="16" depart="5076.00" from="593642481" to="-28924715#1" />
    <trip id="24" depart="5112.00" from="-472431976#4" to="-136161120#0" />
    <trip id="56" depart="5148.00" from="593642481" to="11552263#1" />
    <trip id="52" depart="5184.00" from="-11552263#1" to="-601529284#1" />
    <trip id="65" depart="5220.00" from="-472431976#10" to="37771321#2" />
    <trip id="33" depart="5256.00" from="-949252004#1" to="12174148#2" />
    <trip id="98" depart="5292.00" from="-708596422#1" to="-28924715#4" />
    <trip id="30" depart="5328.00" from="-708596420#9" to="399835468#4" />
    <trip id="86" depart="5364.00" from="36084921#1" to="37862085" />
    <trip id="13" depart="5400.00" from="-38136736#3" to="-28924719#1" />
    <trip id="37" depart="5436.00" from="675310291#0" to="601468005#2" />
    <trip id="12" depart="5472.00" from="472431976#1" to="889984930" />
    <trip id="38" depart="5508.00" from="-702929170#1" to="601529284#1" />
    <trip id="20" depart="5544.00" from="-601529284#1" to="38136736#1" />
    <trip id="53" depart="5580.00" from="838419184#5" to="163843396#1" />
    <trip id="98" depart="5616.00" from="38107860#1" to="949252004#1" />
    <trip id="62" depart="5652.00" from="28924715#2" to="-601529284#1" />
    <trip id="91" depart="5688.00" from="889984929#0" to="472432750#2" />
    <trip id="1" depart="5724.00" from="-708596420#9" to="-683871816#3" />
    <trip id="21" depart="5760.00" from="-11552263#1" to="-36185525#0" />
    <trip id="96" depart="5796.00" from="946030638#3" to="37731777#3" />
    <trip id="99" depart="5832.00" from="684283615#0" to="-601529284#1" />
    <trip id="42" depart="5868.00" from="709289370" to="597136845#0" />
    <trip id="82" depart="5904.00" from="838419178#1" to="28103274" />
    <trip id="32" depart="5940.00" from="838425491#2" to="37771321#2" />
    <trip id="12" depart="5976.00" from="-38136736#1" to="838425490#0" />
    <trip id="31" depart="6012.00" from="-683871816#2" to="875229042#0" />
    <trip id="77" depart="6048.00" from="36185525#0" to="11552263#1" />
    <trip id="59" depart="6084.00" from="36084921#0" to="-946030638#1" />
    <trip id="100" depart="6120.00" from="-28924719#1" to="-28924719#1" />
    <trip id="40" depart="6156.00" from="-28924727#4" to="838419184#5" />
    <trip id="53" depart="6192.00" from="-791197833" to="-158465673#1" />
    <trip id="91" depart="6228.00" from="-889984930" to="399835468#4" />
    <trip id="2" depart="6264.00" from="38136736#3" to="838425491#2" />
    <trip id="62" depart="6300.00" from="-791197833" to="889984927#0" />
    <trip id="32" depart="6336.00" from="-11552263#1" to="-38136736#7" />
    <trip id="87" depart="6372.00" from="28924715#2" to="457841319" />
    <trip id="8" depart="6408.00" from="-946030638#2" to="704606545#0" />
    <trip id="64" depart="6444.00" from="36185525#0" to="-12174148#1" />
    <trip id="6" depart="6480.00" from="-889984925#1" to="399835468#4" />
    <trip id="66" depart="6516.00" from="-601468009#3" to="-472432750#2" />
    <trip id="100" depart="6552.00" from="397989527#2" to="163843403" />
    <trip id="17" depart="6588.00" from="949252004#1" to="889984925#1" />
    <trip id="21" depart="6624.00" from="-702929170#1" to="-28924715#2" />
    <trip id="66" depart="6660.00" from="-457841319" to="12174148#5" />
    <trip id="69" depart="6696.00" from="-946030639#2" to="12174148#5" />
    <trip id="77" depart="6732.00" from="-36084921#1" to="-708596420#9" />
    <trip id="31" depart="6768.00" from="-897470229" to="601529284#1" />
    <trip id="49" depart="6804.00" from="-37731777#3" to="399835468#4" />
    <trip id="100" depart="6840.00" from="-889984918#1" to="702906185#2" />
    <trip id="16" depart="6876.00" from="473304000#0" to="-473304000#0" />
    <trip id="14" depart="6912.00" from="597136845#0" to="-946030627#0" />
    <trip id="89" depart="6948.00" from="709279411#0" to="-158465673#1" />
    <trip id="93" depart="6984.00" from="-708550656" to="28924719#1" />
    <trip id="98" depart="7020.00" from="-601861003#1" to="1021040349" />
    <trip id="57" depart="7056.00" from="37731777#0" to="-601529284#1" />
    <trip id="38" depart="7092.00" from="791197834" to="-708533143#2" />
    <trip id="62" depart="7128.00" from="480685836#3" to="889984928#0" />
    <trip id="80" depart="7164.00" from="-36730546#0" to="838419178#2" />
    <trip id="4" depart="7200.00" from="-399816039#2" to="163843396#0" />
    <trip id="84" depart="7236.00" from="-37731777#7" to="875229044#0" />
    <trip id="22" depart="7272.00" from="-708533143#2" to="28924719#1" />
    <trip id="25" depart="7308.00" from="946030638#0" to="-38136736#2" />
    <trip id="22" depart="7344.00" from="-28924719#1" to="596788386#1" />
    <trip id="32" depart="7380.00" from="-12174148#5" to="-37771321#3" />
    <trip id="60" depart="7416.00" from="-601468009#1" to="-12174148#2" />
    <trip id="62" depart="7452.00" from="-709289369#1" to="-36084921#0" />
    <trip id="82" depart="7488.00" from="875229044#0" to="28924715#4" />
    <trip id="37" depart="7524.00" from="-12174148#2" to="601529284#1" />
    <trip id="92" depart="7560.00" from="-597136845#0" to="838419179#4" />
    <trip id="21" depart="7596.00" from="-12174148#2" to="-37731777#7" />
    <trip id="28" depart="7632.00" from="-889984907" to="708642543#1" />
    <trip id="39" depart="7668.00" from="875229044#1" to="889984933" />
    <trip id="65" depart="7704.00" from="-472432750#2" to="-946030638#1" />
    <trip id="27" depart="7740.00" from="711379743#3" to="708596420#14" />
    <trip id="10" depart="7776.00" from="889984918#1" to="-36084921#1" />
    <trip id="50" depart="7812.00" from="-12174148#2" to="11552263#1" />
    <trip id="9" depart="7848.00" from="709685351#0" to="480685836#3" />
    <trip id="59" depart="7884.00" from="-946030638#1" to="474551102" />
    <trip id="10" depart="7920.00" from="12174148#2" to="709289369#1" />
    <trip id="21" depart="7956.00" from="-601529284#1" to="601529284#1" />
    <trip id="31" depart="7992.00" from="-38136736#1" to="37862085" />
    <trip id="18" depart="8028.00" from="-708550656" to="-889984916#1" />
    <trip id="94" depart="8064.00" from="-601529284#1" to="-28924715#2" />
    <trip id="1" depart="8100.00" from="-36085035#1" to="472432750#2" />
    <trip id="57" depart="8136.00" from="472431976#6" to="472431976#1" />
    <trip id="21" depart="8172.00" from="12174148#2" to="37862085" />
    <trip id="48" depart="8208.00" from="704606545#0" to="946030639#0" />
    <trip id="87" depart="8244.00" from="-889984926" to="601529284#1" />
    <trip id="68" depart="8280.00" from="708533143#3" to="711379742#1" />
    <trip id="25" depart="8316.00" from="472431976#8" to="-601468009#3" />
    <trip id="16" depart="8352.00" from="708533143#4" to="37731777#5" />
    <trip id="78" depart="8388.00" from="601529284#1" to="601529284#1" />
    <trip id="4" depart="8424.00" from="-472432750#2" to="-36084921#0" />
    <trip id="68" depart="8460.00" from="684283623#0" to="472431976#7" />
    <trip id="27" depart="8496.00" from="-11552263#1" to="-28924719#1" />
    <trip id="88" depart="8532.00" from="-946030639#0" to="457841319" />
    <trip id="68" depart="8568.00" from="-37771321#1" to="596788386#1" />
    <trip id="22" depart="8604.00" from="-709289373#1" to="457841319" />
    <trip id="4" depart="8640.00" from="-601529284#1" to="-601529284#1" />
    <trip id="26" depart="8676.00" from="-38136736#1" to="480685836#2" />
    <trip id="9" depart="8712.00" from="38136736#1" to="-36084921#0" />
    <trip id="43" depart="8748.00" from="-37731777#2" to="709289369#1" />
    <trip id="5" depart="8784.00" from="-601468011#1" to="875229044#1" />
    <trip id="50" depart="8820.00" from="946030638#2" to="708596420#12" />
    <trip id="31" depart="8856.00" from="-37771359#4" to="-36730553#0" />
    <trip id="38" depart="8892.00" from="708642543#1" to="11552263#1" />
    <trip id="82" depart="8928.00" from="-12174148#2" to="-36730573#1" />
    <trip id="27" depart="8964.00" from="-601529284#1" to="-601529284#1" />
    <trip id="22" depart="9000.00" from="-12174148#2" to="601468005#3" />
    <trip id="29" depart="9036.00" from="-200605636#0" to="-708550657" />
    <trip id="9" depart="9072.00" from="593642481" to="601529284#1" />
    <trip id="37" depart="9108.00" from="704606544#0" to="-601529284#1" />
    <trip id="14" depart="9144.00" from="-399816039#1" to="397989527#2" />
    <trip id="83" depart="9180.00" from="704626470#3" to="601529284#1" />
    <trip id="83" depart="9216.00" from="601529284#1" to="11552263#1" />
    <trip id="1" depart="9252.00" from="601468009#1" to="838425490#0" />
    <trip id="29" depart="9288.00" from="38107860#2" to="-38136736#1" />
    <trip id="79" depart="9324.00" from="708596420#3" to="-28924715#2" />
    <trip id="79" depart="9360.00" from="-11552263#1" to="-708596420#3" />
    <trip id="9" depart="9396.00" from="-889984908" to="889984937" />
    <trip id="69" depart="9432.00" from="601529284#1" to="12174148#5" />
    <trip id="1" depart="9468.00" from="37370971#1" to="11552263#1" />
    <trip id="84" depart="9504.00" from="838419184#2" to="397989527#1" />
    <trip id="8" depart="9540.00" from="-838419184#5" to="889984908" />
    <trip id="17" depart="9576.00" from="708596416#0" to="11552263#1" />
    <trip id="25" depart="9612.00" from="889984935" to="-36084921#0" />
    <trip id="5" depart="9648.00" from="838419178#1" to="163843395" />
    <trip id="83" depart="9684.00" from="28924715#2" to="838419179#3" />
    <trip id="23" depart="9720.00" from="-946030639#0" to="12174148#5" />
    <trip id="33" depart="9756.00" from="-597126909#2" to="477390127#0" />
    <trip id="6" depart="9792.00" from="601468009#1" to="472432750#2" />
    <trip id="6" depart="9828.00" from="-38136736#3" to="838419178#1" />
    <trip id="58" depart="9864.00" from="28924715#2" to="-37731777#11" />
    <trip id="52" depart="9900.00" from="-472432750#2" to="-37771321#1" />
    <trip id="58" depart="9936.00" from="-38107924#1" to="28924719#1" />
    <trip id="11" depart="9972.00" from="601529284#1" to="596788386#1" />
    <trip id="61" depart="10008.00" from="946030627#1" to="949252004#1" />
    <trip id="40" depart="10044.00" from="38136736#1" to="791197833" />
    <trip id="91" depart="10080.00" from="838425490#0" to="28924715#4" />
    <trip id="42" depart="10116.00" from="709289373#1" to="37731777#7" />
    <trip id="4" depart="10152.00" from="601861003#1" to="708596410#2" />
    <trip id="20" depart="10188.00" from="838419184#5" to="28924715#4" />
    <trip id="12" depart="10224.00" from="-28924719#1" to="-36084921#0" />
    <trip id="100" depart="10260.00" from="597136845#1" to="38136736#3" />
    <trip id="4" depart="10296.00" from="711379742#0" to="-472431976#4" />
    <trip id="80" depart="10332.00" from="708596420#10" to="953227384#0" />
    <trip id="7" depart="10368.00" from="28924692#2" to="-36185525#0" />
    <trip id="23" depart="10404.00" from="480685836#3" to="-36084921#1" />
    <trip id="67" depart="10440.00" from="704626467#0" to="708596420#14" />
    <trip id="48" depart="10476.00" from="-889984918#1" to="838419184#5" />
    <trip id="52" depart="10512.00" from="-889984916#1" to="708642543#1" />
    <trip id="37" depart="10548.00" from="-601861003#1" to="601468009#3" />
    <trip id="25" depart="10584.00" from="-37731777#10" to="-889984918#1" />
    <trip id="16" depart="10620.00" from="-889984928#0" to="838419181#1" />
    <trip id="90" depart="10656.00" from="708596420#3" to="-36730573#1" />
    <trip id="75" depart="10692.00" from="163843397#0" to="711379742#1" />
    <trip id="47" depart="10728.00" from="946030638#3" to="163843403" />
    <trip id="75" depart="10764.00" from="-38136736#4" to="704606545#0" />
    <trip id="69" depart="10800.00" from="-472431976#10" to="38107924#4" />
    <trip id="17" depart="10836.00" from="-708550656" to="-36084921#0" />
    <trip id="27" depart="10872.00" from="-11552263#1" to="11552263#1" />
    <trip id="7" depart="10908.00" from="-12174148#5" to="399835468#4" />
    <trip id="44" depart="10944.00" from="601529284#1" to="601529284#1" />
    <trip id="71" depart="10980.00" from="28924715#4" to="399816039#2" />
    <trip id="32" depart="11016.00" from="813363002#0" to="-791197833" />
    <trip id="13" depart="11052.00" from="37862082" to="-399816039#2" />
    <trip id="60" depart="11088.00" from="473304000#0" to="953227387#3" />
    <trip id="14" depart="11124.00" from="-708642543#1" to="480685836#3" />
    <trip id="39" depart="11160.00" from="-38136736#3" to="962177672" />
    <trip id="76" depart="11196.00" from="-28924715#2" to="-601529284#1" />
    <trip id="79" depart="11232.00" from="-946030638#1" to="601861003#2" />
    <trip id="61" depart="11268.00" from="36084921#1" to="-36085035#1" />
    <trip id="41" depart="11304.00" from="397989527#1" to="-36084921#1" />
    <trip id="10" depart="11340.00" from="-709289364#1" to="889984928#0" />
    <trip id="69" depart="11376.00" from="36084921#0" to="-12174148#2" />
    <trip id="71" depart="11412.00" from="-597136845#0" to="-683871816#2" />
    <trip id="50" depart="11448.00" from="-399816039#2" to="601529284#1" />
    <trip id="62" depart="11484.00" from="-601529284#1" to="472431976#8" />
    <trip id="49" depart="11520.00" from="36185525#0" to="838419178#1" />
    <trip id="76" depart="11556.00" from="-709289368#1" to="-12174148#2" />
    <trip id="51" depart="11592.00" from="397989527#1" to="37731777#7" />
    <trip id="90" depart="11628.00" from="-12174148#2" to="28103274" />
    <trip id="6" depart="11664.00" from="-38136736#1" to="953227387#3" />
    <trip id="19" depart="11700.00" from="36730553#0" to="708596417" />
    <trip id="82" depart="11736.00" from="38136736#3" to="38136736#3" />
    <trip id="60" depart="11772.00" from="791197833" to="-28924715#1" />
    <trip id="23" depart="11808.00" from="-711492959#1" to="472431976#1" />
    <trip id="87" depart="11844.00" from="-708596422#1" to="838419184#5" />
    <trip id="60" depart="11880.00" from="-601861003#2" to="601468009#1" />
    <trip id="72" depart="11916.00" from="36084921#1" to="28924727#4" />
    <trip id="17" depart="11952.00" from="791197834" to="889984928#0" />
    <trip id="48" depart="11988.00" from="946030638#4" to="-889984885#0" />
    <trip id="62" depart="12024.00" from="36084921#1" to="-38136736#1" />
    <trip id="43" depart="12060.00" from="684283623#0" to="38136736#4" />
    <trip id="64" depart="12096.00" from="28924715#2" to="28924719#1" />
    <trip id="9" depart="12132.00" from="-838419184#5" to="-480685836#3" />
    <trip id="27" depart="12168.00" from="158465673#1" to="596788386#1" />
    <trip id="54" depart="12204.00" from="-28924719#1" to="-601529284#1" />
    <trip id="92" depart="12240.00" from="-601529284#1" to="683871816#3" />
    <trip id="41" depart="12276.00" from="28924715#2" to="838419179#3" />
    <trip id="15" depart="12312.00" from="-889984928#0" to="-472431976#4" />
    <trip id="2" depart="12348.00" from="-601529284#1" to="-28924715#2" />
    <trip id="94" depart="12384.00" from="28924715#3" to="163843403" />
    <trip id="25" depart="12420.00" from="-889984930" to="457841319" />
    <trip id="11" depart="12456.00" from="37731777#9" to="-838419184#5" />
    <trip id="34" depart="12492.00" from="480685836#3" to="-38136736#7" />
    <trip id="85" depart="12528.00" from="472431976#2" to="11552263#1" />
    <trip id="10" depart="12564.00" from="683871816#0" to="709685353#1" />
    <trip id="43" depart="12600.00" from="28924715#2" to="-36730553#0" />
    <trip id="69" depart="12636.00" from="399816039#1" to="-12174148#2" />
    <trip id="93" depart="12672.00" from="-28924715#2" to="-496615727#1" />
    <trip id="83" depart="12708.00" from="704606545#0" to="-946030638#1" />
    <trip id="5" depart="12744.00" from="597136845#1" to="28924715#2" />
    <trip id="85" depart="12780.00" from="37771321#2" to="-12174148#2" />
    <trip id="78" depart="12816.00" from="889984916#1" to="136161120#1" />
    <trip id="88" depart="12852.00" from="-28924719#1" to="37731777#6" />
    <trip id="88" depart="12888.00" from="813363002#0" to="236354440#1" />
    <trip id="30" depart="12924.00" from="397989527#2" to="-36185525#0" />
    <trip id="79" depart="12960.00" from="-399816039#1" to="-838419184#2" />
    <trip id="35" depart="12996.00" from="-12174148#2" to="38136736#7" />
    <trip id="55" depart="13032.00" from="-11552263#1" to="163843403" />
    <trip id="16" depart="13068.00" from="472838714#1" to="-38136736#3" />
    <trip id="17" depart="13104.00" from="953227387#3" to="38107860#2" />
    <trip id="10" depart="13140.00" from="601529284#1" to="601468009#1" />
    <trip id="80" depart="13176.00" from="36730573#1" to="-953227384#0" />
    <trip id="60" depart="13212.00" from="37862085" to="597126909#2" />
    <trip id="68" depart="13248.00" from="-838419184#5" to="-12174148#2" />
    <trip id="74" depart="13284.00" from="889984885#0" to="-683871816#3" />
    <trip id="56" depart="13320.00" from="875229042#2" to="953227387#4" />
    <trip id="86" depart="13356.00" from="-136161120#1" to="838425490#0" />
    <trip id="87" depart="13392.00" from="-709360981#2" to="813363002#0" />
    <trip id="75" depart="13428.00" from="683871816#3" to="-683871816#2" />
    <trip id="22" depart="13464.00" from="704606545#0" to="-36730546#2" />
    <trip id="73" depart="13500.00" from="838419184#5" to="37862085" />
    <trip id="61" depart="13536.00" from="946030638#3" to="163843403" />
    <trip id="29" depart="13572.00" from="597136845#0" to="-708596420#10" />
    <trip id="62" depart="13608.00" from="-601529284#1" to="-28924715#4" />
    <trip id="84" depart="13644.00" from="601468011#0" to="889984933" />
    <trip id="83" depart="13680.00" from="-946030638#2" to="-36084921#0" />
    <trip id="16" depart="13716.00" from="-28924719#1" to="-496615727#0" />
    <trip id="81" depart="13752.00" from="601529284#1" to="-708596420#9" />
    <trip id="7" depart="13788.00" from="163843403" to="791197834" />
    <trip id="59" depart="13824.00" from="472838714#1" to="-28924715#4" />
    <trip id="66" depart="13860.00" from="875229044#0" to="480685836#3" />
    <trip id="85" depart="13896.00" from="-38136736#4" to="-28924719#1" />
    <trip id="57" depart="13932.00" from="838419181#0" to="-683871816#0" />
    <trip id="32" depart="13968.00" from="36084921#0" to="-708533143#2" />
    <trip id="9" depart="14004.00" from="601529284#1" to="12174148#2" />
    <trip id="67" depart="14040.00" from="472432750#2" to="838425490#0" />
    <trip id="5" depart="14076.00" from="-37731777#1" to="-946030638#1" />
    <trip id="62" depart="14112.00" from="601529284#1" to="709289368#1" />
    <trip id="17" depart="14148.00" from="791197834" to="11552263#1" />
    <trip id="44" depart="14184.00" from="472432750#2" to="37771321#4" />
    <trip id="68" depart="14220.00" from="791197833" to="-399816039#2" />
    <trip id="96" depart="14256.00" from="-28924715#4" to="-472431976#11" />
    <trip id="79" depart="14292.00" from="-708596420#10" to="601529284#1" />
    <trip id="25" depart="14328.00" from="37862085" to="-708521404#1" />
    <trip id="60" depart="14364.00" from="-12174148#5" to="11552263#1" />
    <trip id="82" depart="14400.00" from="946030638#0" to="-36185525#0" />
    <trip id="49" depart="14436.00" from="838425490#0" to="11552263#1" />
    <trip id="20" depart="14472.00" from="37862085" to="-889984933" />
    <trip id="31" depart="14508.00" from="889984920" to="708550655" />